@<TRIPOS>MOLECULE
ZINC21297308
   29    30     0     0     0
SMALL
USER_CHARGES

@<TRIPOS>ATOM
      1 C1         -0.0158    1.3119    0.0093 C.ar      1 <0>         0.3544
      2 N1          1.0888    2.0360    0.0026 N.ar      1 <0>        -0.5966
      3 C2          2.2875    1.4625   -0.0119 C.ar      1 <0>         0.5051
      4 C3          2.3582    0.0588   -0.0202 C.ar      1 <0>        -0.1066
      5 C4          1.1547   -0.6659   -0.0126 C.ar      1 <0>         0.2965
      6 N2          0.0021   -0.0041    0.0020 N.ar      1 <0>        -0.5541
      7 N3          1.5110   -1.9908   -0.0227 N.pl3     1 <0>        -0.4608
      8 C5          2.8729   -2.0476   -0.0358 C.2       1 <0>         0.2691
      9 N4          3.3680   -0.8441   -0.0343 N.2       1 <0>        -0.4703
     10 C6          0.5956   -3.1347   -0.0195 C.3       1 <0>         0.1179
     11 C7          0.1648   -3.4471   -1.4540 C.3       1 <0>         0.0174
     12 O1         -0.7280   -4.5628   -1.4509 O.3       1 <0>        -0.3560
     13 C8         -1.1927   -4.9390   -2.7488 C.3       1 <0>        -0.5334
     14 P1          0.1393   -5.8035   -3.6441 P.3       1 <0>         2.2244
     15 O2          1.3583   -4.8649   -3.7856 O.2       1 <0>        -1.0813
     16 O3          0.5517   -7.0682   -2.8581 O.3       1 <0>        -1.0784
     17 O4         -0.3842   -6.2274   -5.1064 O.3       1 <0>        -0.9014
     18 N5          3.4393    2.2295   -0.0193 N.pl3     1 <0>        -0.8214
     19 H1         -0.9693    1.8187    0.0257 H         1 <0>         0.2012
     20 H2          3.4551   -2.9572   -0.0459 H         1 <0>         0.2288
     21 H3          1.1000   -4.0024    0.4056 H         1 <0>         0.1127
     22 H4         -0.2829   -2.8953    0.5797 H         1 <0>         0.0969
     23 H5         -0.3395   -2.5793   -1.8790 H         1 <0>         0.0421
     24 H6          1.0433   -3.6864   -2.0532 H         1 <0>         0.1101
     25 H7         -2.0527   -5.6013   -2.6490 H         1 <0>         0.0930
     26 H8         -1.4836   -4.0468   -3.3033 H         1 <0>         0.0504
     27 H9          0.2741   -6.6931   -5.6402 H         1 <0>         0.4151
     28 H10         3.3774    3.1975   -0.0138 H         1 <0>         0.4072
     29 H11         4.3085    1.7992   -0.0299 H         1 <0>         0.4180
@<TRIPOS>BOND
     1    1    6 ar
     2    1    2 ar
     3    1   19 1
     4    2    3 ar
     5    3    4 ar
     6    3   18 1
     7    4    9 1
     8    4    5 ar
     9    5    6 ar
    10    5    7 1
    11    7    8 1
    12    7   10 1
    13    8    9 2
    14    8   20 1
    15   10   11 1
    16   10   21 1
    17   10   22 1
    18   11   12 1
    19   11   23 1
    20   11   24 1
    21   12   13 1
    22   13   14 1
    23   13   25 1
    24   13   26 1
    25   14   15 2
    26   14   16 1
    27   14   17 1
    28   17   27 1
    29   18   28 1
    30   18   29 1
