@<TRIPOS>MOLECULE
ZINC03830218
   43    45     0     0     0
SMALL
USER_CHARGES
(2S,5R,6R)-6-[[(2R)-2-amino-2-phenyl-acetyl]amino]-3,3-dimethyl-7-oxo-4-thia-1-azabicyclo[3.2.0]heptane-2-carboxylic acid
@<TRIPOS>ATOM
      1 C1         -0.2771   -3.8916   -3.2209 C.3       1 <0>        -0.1260
      2 C2         -0.9336   -3.0056   -4.2816 C.3       1 <0>         0.0414
      3 C3         -2.4808   -2.9969   -4.1407 C.3       1 <0>         0.0457
      4 H1         -2.7421   -3.0844   -3.0861 H         1 <0>         0.0753
      5 N1         -3.0690   -1.7666   -4.6784 N.am      1 <0>        -0.5033
      6 C4         -2.1883   -0.5736   -4.6687 C.3       1 <0>         0.1097
      7 H2         -2.0958   -0.0261   -5.6066 H         1 <0>         0.1630
      8 S1         -0.6176   -1.2124   -3.9598 S.3       1 <0>        -0.3046
      9 C5         -3.1432    0.0255   -3.6342 C.3       1 <0>         0.0801
     10 H3         -3.5827    0.9748   -3.9406 H         1 <0>         0.1453
     11 C6         -4.0312   -1.1719   -3.9011 C.2       1 <0>         0.4986
     12 O1         -5.1531   -1.4821   -3.5605 O.2       1 <0>        -0.4211
     13 N2         -2.5945    0.0620   -2.2764 N.am      1 <0>        -0.6675
     14 C7         -3.0782    0.9420   -1.3775 C.2       1 <0>         0.5085
     15 O2         -3.9678    1.7037   -1.6927 O.2       1 <0>        -0.5176
     16 C8         -2.5137    0.9795    0.0193 C.3       1 <0>         0.0714
     17 H4         -2.3301   -0.0380    0.3644 H         1 <0>         0.1705
     18 C9         -1.2190    1.7506    0.0173 C.ar      1 <0>        -0.1489
     19 C10        -0.0126    1.0758    0.0080 C.ar      1 <0>        -0.0771
     20 C11         1.1750    1.7832    0.0004 C.ar      1 <0>        -0.1028
     21 C12         1.1563    3.1654    0.0076 C.ar      1 <0>        -0.0843
     22 C13        -0.0501    3.8402    0.0228 C.ar      1 <0>        -0.1058
     23 C14        -1.2377    3.1328    0.0303 C.ar      1 <0>        -0.1100
     24 C15        -3.0485   -4.1786   -4.8840 C.2       1 <0>         0.4776
     25 O3         -3.5790   -4.0188   -5.9577 O.co2     1 <0>        -0.5953
     26 C16        -0.4994   -3.4104   -5.6918 C.3       1 <0>        -0.1336
     27 H5         -0.6383   -4.9145   -3.3277 H         1 <0>         0.1029
     28 H6          0.8049   -3.8730   -3.3509 H         1 <0>         0.0691
     29 H7         -0.5304   -3.5186   -2.2285 H         1 <0>         0.0594
     30 H8         -1.8830   -0.5472   -2.0243 H         1 <0>         0.4211
     31 H9          0.0021   -0.0041    0.0020 H         1 <0>         0.1385
     32 H10         2.1175    1.2560   -0.0115 H         1 <0>         0.1403
     33 H11         2.0841    3.7181    0.0017 H         1 <0>         0.1370
     34 H12        -0.0647    4.9201    0.0291 H         1 <0>         0.1368
     35 H13        -2.1802    3.6600    0.0425 H         1 <0>         0.1238
     36 H14        -3.1464    1.6160    1.8721 H         1 <0>         0.4463
     37 H15        -3.6601    2.5810    0.6188 H         1 <0>         0.4412
     38 H16        -0.9070   -2.7033   -6.4144 H         1 <0>         0.0667
     39 H17         0.5888   -3.4052   -5.7525 H         1 <0>         0.0658
     40 H18        -0.8709   -4.4109   -5.9132 H         1 <0>         0.0877
     41 N3         -3.4932    1.6205    0.9143 N.4       1 <0>        -0.6269
     42 H19        -4.3772    1.0997    0.8756 H         1 <0>         0.4484
     43 O4         -2.9648   -5.4086   -4.3532 O.co2     1 <0>        -0.7471
@<TRIPOS>BOND
     1    1    2 1
     2    1   27 1
     3    1   28 1
     4    1   29 1
     5    2    8 1
     6    2    3 1
     7    2   26 1
     8    3    4 1
     9    3    5 1
    10    3   24 1
    11    5   11 am
    12    5    6 1
    13    6    7 1
    14    6    8 1
    15    6    9 1
    16    9   10 1
    17    9   11 1
    18    9   13 1
    19   11   12 2
    20   13   14 am
    21   13   30 1
    22   14   15 2
    23   14   16 1
    24   16   17 1
    25   16   18 1
    26   16   41 1
    27   18   23 ar
    28   18   19 ar
    29   19   20 ar
    30   19   31 1
    31   20   21 ar
    32   20   32 1
    33   21   22 ar
    34   21   33 1
    35   22   23 ar
    36   22   34 1
    37   23   35 1
    38   24   25 2
    39   24   43 1
    40   26   38 1
    41   26   39 1
    42   26   40 1
    43   36   41 1
    44   37   41 1
    45   41   42 1
