@<TRIPOS>MOLECULE
ZINC03920719
   75    78     0     0     0
SMALL
USER_CHARGES
7-[2-(4-fluorophenyl)-5-isopropyl-3-phenyl-4-(phenylcarbamoyl)pyrrol-1-yl]-3,5-dihydroxy-heptanoic acid
@<TRIPOS>ATOM
      1 C1         -0.0291    1.0885    0.0221 C.3       1 <0>        -0.1495
      2 C2         -0.7404    1.5920    1.2797 C.3       1 <0>        -0.0367
      3 C3         -0.0014    1.0867    2.5205 C.3       1 <0>        -0.1498
      4 C4         -0.7521    3.0989    1.2809 C.2       1 <0>         0.1023
      5 C5          0.3559    3.8992    1.2751 C.2       1 <0>        -0.2125
      6 C6         -0.1353    5.2868    1.2756 C.2       1 <0>        -0.0756
      7 C7         -1.5139    5.1979    1.2908 C.2       1 <0>         0.0710
      8 N1         -1.8559    3.8705    1.2937 N.pl3     1 <0>        -0.4179
      9 C8         -3.2298    3.3622    1.3087 C.3       1 <0>         0.0911
     10 C9         -3.6921    3.1842    2.7563 C.3       1 <0>        -0.1657
     11 C10        -5.1269    2.6533    2.7719 C.3       1 <0>         0.1174
     12 H1         -5.7663    3.3172    2.1900 H         1 <0>         0.1000
     13 C11        -5.6329    2.5933    4.2145 C.3       1 <0>        -0.1845
     14 C12        -7.1065    2.1819    4.2215 C.3       1 <0>         0.1331
     15 H2         -7.6767    2.8622    3.5890 H         1 <0>         0.0942
     16 C13        -7.6461    2.2424    5.6519 C.3       1 <0>        -0.1934
     17 C14        -9.1258    1.9568    5.6431 C.2       1 <0>         0.4594
     18 O1         -9.6908    1.7283    4.5998 O.co2     1 <0>        -0.6235
     19 O2         -7.2313    0.8491    3.7214 O.3       1 <0>        -0.5292
     20 O3         -5.1564    1.3433    2.2019 O.3       1 <0>        -0.5411
     21 C15        -2.4556    6.3354    1.3026 C.ar      1 <0>        -0.0288
     22 C16        -3.5671    6.3339    0.4570 C.ar      1 <0>        -0.0847
     23 C17        -4.4457    7.3967    0.4757 C.ar      1 <0>        -0.1472
     24 C18        -4.2216    8.4697    1.3238 C.ar      1 <0>         0.1052
     25 C19        -3.1174    8.4790    2.1613 C.ar      1 <0>        -0.1481
     26 C20        -2.2349    7.4193    2.1550 C.ar      1 <0>        -0.0610
     27 F1         -5.0831    9.5103    1.3345 F         1 <0>        -0.1371
     28 C21         0.6797    6.5226    1.2673 C.ar      1 <0>        -0.0074
     29 C22         0.6319    7.3859    0.1724 C.ar      1 <0>        -0.0979
     30 C23         1.3903    8.5385    0.1729 C.ar      1 <0>        -0.1174
     31 C24         2.2049    8.8336    1.2515 C.ar      1 <0>        -0.1206
     32 C25         2.2607    7.9789    2.3380 C.ar      1 <0>        -0.1185
     33 C26         1.5031    6.8258    2.3520 C.ar      1 <0>        -0.1080
     34 C27         1.7604    3.4609    1.2674 C.2       1 <0>         0.6092
     35 O4          2.3353    3.2799    0.2107 O.2       1 <0>        -0.5115
     36 N2          2.4100    3.2598    2.4310 N.am      1 <0>        -0.6690
     37 C28         3.7128    2.7511    2.4258 C.ar      1 <0>         0.1482
     38 C29         4.1303    1.8966    3.4379 C.ar      1 <0>        -0.1465
     39 C30         5.4160    1.3922    3.4272 C.ar      1 <0>        -0.1021
     40 C31         6.2905    1.7455    2.4160 C.ar      1 <0>        -0.1374
     41 C32         5.8796    2.6003    1.4096 C.ar      1 <0>        -0.1028
     42 C33         4.5937    3.1040    1.4116 C.ar      1 <0>        -0.1202
     43 H3         -0.0207   -0.0015    0.0213 H         1 <0>         0.0627
     44 H4          0.9956    1.4598    0.0110 H         1 <0>         0.0697
     45 H5         -0.5556    1.4484   -0.8618 H         1 <0>         0.0573
     46 H6         -1.7651    1.2207    1.2909 H         1 <0>         0.0851
     47 H7          1.0234    1.4580    2.5093 H         1 <0>         0.0627
     48 H8         -0.5081    1.4454    3.4164 H         1 <0>         0.0584
     49 H9          0.0071   -0.0032    2.5196 H         1 <0>         0.0662
     50 H10        -3.8851    4.0711    0.8026 H         1 <0>         0.0982
     51 H11        -3.2675    2.4018    0.7946 H         1 <0>         0.1035
     52 H12        -3.0369    2.4752    3.2623 H         1 <0>         0.0731
     53 H13        -3.6544    4.1446    3.2704 H         1 <0>         0.0795
     54 H14        -5.0490    1.8626    4.7742 H         1 <0>         0.0654
     55 H15        -5.5274    3.5744    4.6777 H         1 <0>         0.0761
     56 H16        -7.1362    1.4988    6.2644 H         1 <0>         0.0634
     57 H17        -7.4703    3.2357    6.0648 H         1 <0>         0.0680
     58 H18        -6.7482    0.1887    4.2368 H         1 <0>         0.3526
     59 H19        -4.6084    0.6984    2.6698 H         1 <0>         0.3668
     60 H20        -3.7405    5.5002   -0.2073 H         1 <0>         0.1329
     61 H21        -5.3080    7.3946   -0.1745 H         1 <0>         0.1400
     62 H22        -2.9475    9.3179    2.8199 H         1 <0>         0.1387
     63 H23        -1.3746    7.4278    2.8079 H         1 <0>         0.1350
     64 H24        -0.0002    7.1544   -0.6721 H         1 <0>         0.1198
     65 H25         1.3511    9.2097   -0.6723 H         1 <0>         0.1213
     66 H26         2.7995    9.7352    1.2455 H         1 <0>         0.1197
     67 H27         2.8988    8.2146    3.1769 H         1 <0>         0.1211
     68 H28         1.5472    6.1596    3.2008 H         1 <0>         0.1177
     69 H29         1.9740    3.4680    3.2721 H         1 <0>         0.4106
     70 H30         3.4492    1.6238    4.2304 H         1 <0>         0.1243
     71 H31         5.7401    0.7247    4.2119 H         1 <0>         0.1244
     72 H32         7.2966    1.3527    2.4119 H         1 <0>         0.1209
     73 H33         6.5649    2.8740    0.6211 H         1 <0>         0.1234
     74 H34         4.2735    3.7718    0.6255 H         1 <0>         0.1385
     75 O5         -9.8161    1.9564    6.7942 O.co2     1 <0>        -0.7819
@<TRIPOS>BOND
     1    1    2 1
     2    1   43 1
     3    1   44 1
     4    1   45 1
     5    2    3 1
     6    2    4 1
     7    2   46 1
     8    3   47 1
     9    3   48 1
    10    3   49 1
    11    4    8 1
    12    4    5 2
    13    5    6 1
    14    5   34 1
    15    6    7 2
    16    6   28 1
    17    7    8 1
    18    7   21 1
    19    8    9 1
    20    9   10 1
    21    9   50 1
    22    9   51 1
    23   10   11 1
    24   10   52 1
    25   10   53 1
    26   11   12 1
    27   11   13 1
    28   11   20 1
    29   13   14 1
    30   13   54 1
    31   13   55 1
    32   14   15 1
    33   14   16 1
    34   14   19 1
    35   16   17 1
    36   16   56 1
    37   16   57 1
    38   17   18 2
    39   17   75 1
    40   19   58 1
    41   20   59 1
    42   21   26 ar
    43   21   22 ar
    44   22   23 ar
    45   22   60 1
    46   23   24 ar
    47   23   61 1
    48   24   25 ar
    49   24   27 1
    50   25   26 ar
    51   25   62 1
    52   26   63 1
    53   28   33 ar
    54   28   29 ar
    55   29   30 ar
    56   29   64 1
    57   30   31 ar
    58   30   65 1
    59   31   32 ar
    60   31   66 1
    61   32   33 ar
    62   32   67 1
    63   33   68 1
    64   34   35 2
    65   34   36 am
    66   36   37 1
    67   36   69 1
    68   37   42 ar
    69   37   38 ar
    70   38   39 ar
    71   38   70 1
    72   39   40 ar
    73   39   71 1
    74   40   41 ar
    75   40   72 1
    76   41   42 ar
    77   41   73 1
    78   42   74 1
