@<TRIPOS>MOLECULE
ZINC04617749
   32    33     0     0     0
SMALL
USER_CHARGES

@<TRIPOS>ATOM
      1 C1         -0.7791    1.7068   -0.4466 C.3       1 <0>        -0.6337
      2 S1         -0.2778   -0.0143   -0.1683 S.o2      1 <0>         2.5283
      3 O1          0.6369   -0.0883    0.9166 O.2       1 <0>        -1.0193
      4 O2         -1.4121   -0.8687   -0.2190 O.2       1 <0>        -1.0193
      5 N1          0.6157   -0.4184   -1.5027 N.2       1 <0>        -1.0578
      6 C2          1.1659   -1.7002   -1.6144 C.ar      1 <0>         0.3237
      7 C3          0.9592   -2.6357   -0.6111 C.ar      1 <0>        -0.2432
      8 C4          1.5037   -3.9011   -0.7237 C.ar      1 <0>        -0.0105
      9 C5          2.2547   -4.2380   -1.8347 C.ar      1 <0>        -0.1318
     10 C6          2.4650   -3.3110   -2.8388 C.ar      1 <0>        -0.1018
     11 C7          1.9180   -2.0423   -2.7364 C.ar      1 <0>         0.0637
     12 O3          2.1192   -1.1313   -3.7258 O.3       1 <0>        -0.2309
     13 C8          2.8575   -1.5106   -4.8016 C.ar      1 <0>         0.0910
     14 C9          2.2373   -2.0822   -5.9035 C.ar      1 <0>        -0.1293
     15 C10         2.9901   -2.4664   -6.9961 C.ar      1 <0>        -0.1080
     16 C11         4.3605   -2.2824   -6.9923 C.ar      1 <0>        -0.1260
     17 C12         4.9811   -1.7134   -5.8953 C.ar      1 <0>        -0.1080
     18 C13         4.2322   -1.3218   -4.8027 C.ar      1 <0>        -0.1293
     19 N2          2.8355   -5.5947   -1.9492 N.pl3     1 <0>         0.0667
     20 O4          2.6530   -6.4064   -1.0720 O.2       1 <0>        -0.2067
     21 O5          3.4925   -5.8911   -2.9199 O.3       1 <0>        -0.2076
     22 H1          0.1081    2.3326   -0.5424 H         1 <0>         0.1192
     23 H2         -1.3689    1.7700   -1.3611 H         1 <0>         0.1192
     24 H3         -1.3777    2.0517    0.3964 H         1 <0>         0.1072
     25 H4          0.3733   -2.3752    0.2580 H         1 <0>         0.1322
     26 H5          1.3424   -4.6285    0.0582 H         1 <0>         0.1369
     27 H6          3.0524   -3.5774   -3.7051 H         1 <0>         0.1405
     28 H7          1.1670   -2.2268   -5.9068 H         1 <0>         0.1298
     29 H8          2.5079   -2.9113   -7.8540 H         1 <0>         0.1258
     30 H9          4.9473   -2.5838   -7.8474 H         1 <0>         0.1232
     31 H10         6.0517   -1.5711   -5.8947 H         1 <0>         0.1259
     32 H11         4.7168   -0.8730   -3.9481 H         1 <0>         0.1298
@<TRIPOS>BOND
     1    1    2 1
     2    1   22 1
     3    1   23 1
     4    1   24 1
     5    2    3 2
     6    2    4 2
     7    2    5 1
     8    5    6 1
     9    6   11 ar
    10    6    7 ar
    11    7    8 ar
    12    7   25 1
    13    8    9 ar
    14    8   26 1
    15    9   10 ar
    16    9   19 1
    17   10   11 ar
    18   10   27 1
    19   11   12 1
    20   12   13 1
    21   13   18 ar
    22   13   14 ar
    23   14   15 ar
    24   14   28 1
    25   15   16 ar
    26   15   29 1
    27   16   17 ar
    28   16   30 1
    29   17   18 ar
    30   17   31 1
    31   18   32 1
    32   19   20 2
    33   19   21 1
