@<TRIPOS>MOLECULE
ZINC21986258
   31    31     0     0     0
SMALL
USER_CHARGES

@<TRIPOS>ATOM
      1 C1         -0.4168    1.3350    0.4126 C.2       1 <0>        -0.2959
      2 C2          0.7079    2.0652    0.2243 C.2       1 <0>         0.2182
      3 N1          1.9011    1.4245    0.0741 N.am      1 <0>        -0.5239
      4 C3          1.9607    0.0807    0.1124 C.2       1 <0>         0.6729
      5 O1          3.0375   -0.4761   -0.0235 O.2       1 <0>        -0.5521
      6 N2          0.8634   -0.6512    0.2968 N.2       1 <0>        -0.6140
      7 C4         -0.3201   -0.0713    0.4477 C.2       1 <0>         0.5150
      8 N3         -1.4467   -0.8375    0.6375 N.pl3     1 <0>        -0.8262
      9 C5          3.1253    2.2027   -0.1308 C.3       1 <0>         0.1182
     10 C6          3.7582    2.5240    1.2246 C.3       1 <0>         0.0421
     11 H1          4.0001    1.5955    1.7419 H         1 <0>         0.1295
     12 C7          5.0368    3.3366    1.0107 C.3       1 <0>         0.0581
     13 O2          4.7373    4.5014    0.2389 O.3       1 <0>        -0.5639
     14 O3          2.8380    3.2822    2.0123 O.3       1 <0>        -0.3417
     15 C8          3.0281    3.1440    3.4218 C.3       1 <0>        -0.5359
     16 P1          2.3814    1.5290    3.9667 P.3       1 <0>         2.1984
     17 O4          0.9132    1.3811    3.5091 O.2       1 <0>        -1.0621
     18 O5          3.2309    0.3979    3.3454 O.3       1 <0>        -1.0660
     19 O6          2.4551    1.4354    5.5723 O.3       1 <0>        -0.9038
     20 H2         -1.3723    1.8223    0.5383 H         1 <0>         0.1415
     21 H3          0.6597    3.1437    0.1932 H         1 <0>         0.1593
     22 H4         -2.3108   -0.4106    0.7476 H         1 <0>         0.4075
     23 H5         -1.3771   -1.8048    0.6613 H         1 <0>         0.4049
     24 H6          3.8272    1.6243   -0.7316 H         1 <0>         0.1063
     25 H7          2.8834    3.1312   -0.6480 H         1 <0>         0.0938
     26 H8          5.4432    3.6356    1.9769 H         1 <0>         0.0441
     27 H9          5.7696    2.7282    0.4808 H         1 <0>         0.0592
     28 H10         5.5033    5.0651    0.0642 H         1 <0>         0.3702
     29 H11         4.0914    3.2063    3.6529 H         1 <0>         0.0468
     30 H12         2.4962    3.9419    3.9401 H         1 <0>         0.0863
     31 H13         2.1265    0.6006    5.9331 H         1 <0>         0.4131
@<TRIPOS>BOND
     1    1    7 1
     2    1    2 2
     3    1   20 1
     4    2    3 1
     5    2   21 1
     6    3    4 am
     7    3    9 1
     8    4    5 2
     9    4    6 1
    10    6    7 2
    11    7    8 1
    12    8   22 1
    13    8   23 1
    14    9   10 1
    15    9   24 1
    16    9   25 1
    17   10   11 1
    18   10   12 1
    19   10   14 1
    20   12   13 1
    21   12   26 1
    22   12   27 1
    23   13   28 1
    24   14   15 1
    25   15   16 1
    26   15   29 1
    27   15   30 1
    28   16   17 2
    29   16   18 1
    30   16   19 1
    31   19   31 1
