@<TRIPOS>MOLECULE
ZINC00001281
   29    30     0     0     0
SMALL
USER_CHARGES

@<TRIPOS>ATOM
      1 C1         -0.1806    1.0357    0.2000 C.ar      1 <0>        -0.1222
      2 C2          0.9245    1.8481    0.0217 C.ar      1 <0>        -0.1361
      3 C3          2.1862    1.2928   -0.0570 C.ar      1 <0>        -0.1180
      4 C4          2.3450   -0.0840    0.0433 C.ar      1 <0>         0.1573
      5 C5          1.2329   -0.8970    0.2224 C.ar      1 <0>        -0.0156
      6 C6         -0.0262   -0.3347    0.3002 C.ar      1 <0>        -0.1119
      7 C7          1.4001   -2.3907    0.3312 C.3       1 <0>        -0.1565
      8 C8          1.7182   -2.7580    1.7577 C.2       1 <0>         0.5052
      9 O1          1.8014   -1.8875    2.6073 O.co2     1 <0>        -0.6883
     10 O2          1.8923   -3.9257    2.0622 O.co2     1 <0>        -0.7010
     11 N1          3.6199   -0.6493   -0.0363 N.pl3     1 <0>        -0.6799
     12 C9          3.9705   -1.4310   -1.1417 C.ar      1 <0>         0.2371
     13 C10         3.3529   -1.2194   -2.3686 C.ar      1 <0>        -0.0923
     14 C11         3.7019   -1.9940   -3.4588 C.ar      1 <0>        -0.0712
     15 C12         4.6640   -2.9789   -3.3298 C.ar      1 <0>        -0.1540
     16 C13         5.2803   -3.1928   -2.1105 C.ar      1 <0>        -0.0674
     17 C14         4.9413   -2.4177   -1.0174 C.ar      1 <0>        -0.0897
     18 Cl1         5.7217   -2.6815    0.5107 Cl        1 <0>        -0.0512
     19 Cl2         2.1442    0.0160   -2.5315 Cl        1 <0>        -0.0473
     20 H1         -1.1659    1.4731    0.2657 H         1 <0>         0.1132
     21 H2          0.8003    2.9181   -0.0565 H         1 <0>         0.1137
     22 H3          3.0486    1.9277   -0.1966 H         1 <0>         0.1147
     23 H4         -0.8913   -0.9662    0.4394 H         1 <0>         0.1149
     24 H5          0.4765   -2.8828    0.0266 H         1 <0>         0.0630
     25 H6          2.2146   -2.7133   -0.3173 H         1 <0>         0.0663
     26 H7          4.2621   -0.4997    0.6751 H         1 <0>         0.4125
     27 H8          3.2224   -1.8301   -4.4125 H         1 <0>         0.1341
     28 H9          4.9344   -3.5828   -4.1833 H         1 <0>         0.1345
     29 H10         6.0307   -3.9634   -2.0133 H         1 <0>         0.1361
@<TRIPOS>BOND
     1    1    6 ar
     2    1    2 ar
     3    1   20 1
     4    2    3 ar
     5    2   21 1
     6    3    4 ar
     7    3   22 1
     8    4    5 ar
     9    4   11 1
    10    5    6 ar
    11    5    7 1
    12    6   23 1
    13    7    8 1
    14    7   24 1
    15    7   25 1
    16    8    9 2
    17    8   10 1
    18   11   12 1
    19   11   26 1
    20   12   17 ar
    21   12   13 ar
    22   13   14 ar
    23   13   19 1
    24   14   15 ar
    25   14   27 1
    26   15   16 ar
    27   15   28 1
    28   16   17 ar
    29   16   29 1
    30   17   18 1
