@<TRIPOS>MOLECULE
ZINC00001084
   24    25     0     0     0
SMALL
USER_CHARGES

@<TRIPOS>ATOM
      1 C1         -0.0178    1.4608    0.0101 C.3       1 <0>         0.0684
      2 N1          0.0021   -0.0041    0.0020 N.pl3     1 <0>        -0.4126
      3 C2          0.0085   -0.7996   -1.0853 C.2       1 <0>         0.2683
      4 N2          0.0275   -2.0544   -0.7142 N.2       1 <0>        -0.4991
      5 C3          0.0343   -2.1318    0.6190 C.2       1 <0>         0.3175
      6 C4          0.0238   -0.8312    1.1071 C.2       1 <0>        -0.1559
      7 C5          0.0338   -0.6202    2.5028 C.2       1 <0>         0.5949
      8 O1          0.0219    0.5106    2.9550 O.2       1 <0>        -0.5132
      9 N3          0.0564   -1.6860    3.3300 N.am      1 <0>        -0.5520
     10 C6          0.0693   -2.9392    2.8440 C.2       1 <0>         0.7070
     11 O2          0.0891   -3.8755    3.6197 O.2       1 <0>        -0.5319
     12 N4          0.0527   -3.1841    1.5201 N.am      1 <0>        -0.5109
     13 C7          0.0693   -4.5651    1.0316 C.3       1 <0>         0.0891
     14 C8          0.0674   -1.4741    4.7795 C.3       1 <0>         0.0836
     15 H1          1.0048    1.8381    0.0023 H         1 <0>         0.0879
     16 H2         -0.5450    1.8219   -0.8730 H         1 <0>         0.0987
     17 H3         -0.5280    1.8123    0.9069 H         1 <0>         0.1006
     18 H4         -0.0012   -0.4540   -2.1085 H         1 <0>         0.2318
     19 H5          1.1010   -4.8936    0.9058 H         1 <0>         0.0732
     20 H6         -0.4324   -5.2114    1.7518 H         1 <0>         0.0936
     21 H7         -0.4482   -4.6180    0.0738 H         1 <0>         0.0925
     22 H8         -0.9574   -1.4357    5.1489 H         1 <0>         0.0769
     23 H9          0.5971   -2.2951    5.2627 H         1 <0>         0.0968
     24 H10         0.5705   -0.5340    5.0055 H         1 <0>         0.0949
@<TRIPOS>BOND
     1    1    2 1
     2    1   15 1
     3    1   16 1
     4    1   17 1
     5    2    6 1
     6    2    3 1
     7    3    4 2
     8    3   18 1
     9    4    5 1
    10    5   12 1
    11    5    6 2
    12    6    7 1
    13    7    8 2
    14    7    9 am
    15    9   10 am
    16    9   14 1
    17   10   11 2
    18   10   12 am
    19   12   13 1
    20   13   19 1
    21   13   20 1
    22   13   21 1
    23   14   22 1
    24   14   23 1
    25   14   24 1
