@<TRIPOS>MOLECULE
ZINC00000895
   44    46     0     0     0
SMALL
USER_CHARGES

@<TRIPOS>ATOM
      1 C1         -0.0178    1.4648    0.0101 C.3       1 <0>        -0.0423
      2 N1          0.0021   -0.0041    0.0020 N.4       1 <0>        -0.3965
      3 C2          0.8161   -0.5105   -1.1349 C.3       1 <0>         0.0378
      4 H1          0.5999    0.0167   -2.0641 H         1 <0>         0.1638
      5 C3          2.2783   -0.3085   -0.6748 C.3       1 <0>        -0.1491
      6 C4          2.2125   -0.3178    0.8666 C.3       1 <0>        -0.1417
      7 C5          0.7165   -0.5247    1.1979 C.3       1 <0>         0.0554
      8 H2          0.4216   -0.0088    2.1117 H         1 <0>         0.1714
      9 C6          0.4542   -2.0378    1.2624 C.3       1 <0>        -0.1043
     10 H3         -0.6201   -2.2220    1.2718 H         1 <0>         0.1449
     11 C7          1.0777   -2.7020    0.0315 C.3       1 <0>         0.0840
     12 H4          2.1625   -2.6065    0.0784 H         1 <0>         0.1133
     13 C8          0.5490   -2.0198   -1.2498 C.3       1 <0>        -0.1610
     14 O1          0.7229   -4.0861    0.0073 O.3       1 <0>        -0.3259
     15 C9          1.6017   -4.9328   -0.5634 C.2       1 <0>         0.5195
     16 O2          2.6406   -4.5079   -1.0277 O.2       1 <0>        -0.4978
     17 C10         1.3018   -6.3780   -0.6244 C.ar      1 <0>        -0.1380
     18 C11         0.1060   -6.8690   -0.0967 C.ar      1 <0>        -0.0583
     19 C12        -0.1676   -8.2197   -0.1570 C.ar      1 <0>        -0.1327
     20 C13         0.7398   -9.0873   -0.7388 C.ar      1 <0>        -0.0724
     21 C14         1.9269   -8.6075   -1.2633 C.ar      1 <0>        -0.1288
     22 C15         2.2104   -7.2584   -1.2152 C.ar      1 <0>        -0.0509
     23 C16         1.0744   -2.6047    2.5134 C.2       1 <0>         0.4708
     24 O3          1.6657   -1.8787    3.2770 O.2       1 <0>        -0.4865
     25 O4          0.9700   -3.9163    2.7793 O.3       1 <0>        -0.3309
     26 C17         1.5818   -4.3850    3.9827 C.3       1 <0>         0.0296
     27 H5          1.0047    1.8421    0.0024 H         1 <0>         0.1246
     28 H6         -0.5450    1.8259   -0.8730 H         1 <0>         0.1279
     29 H7         -0.5280    1.8163    0.9069 H         1 <0>         0.1259
     30 H8          2.9049   -1.1254   -1.0327 H         1 <0>         0.1174
     31 H9          2.6598    0.6479   -1.0324 H         1 <0>         0.1086
     32 H10         2.8067   -1.1393    1.2667 H         1 <0>         0.1108
     33 H11         2.5615    0.6340    1.2670 H         1 <0>         0.1119
     34 H12        -0.5216   -2.1938   -1.3579 H         1 <0>         0.1085
     35 H13         1.0749   -2.4186   -2.1172 H         1 <0>         0.1271
     36 H14        -0.6029   -6.1930    0.3580 H         1 <0>         0.1377
     37 H15        -1.0920   -8.6009    0.2511 H         1 <0>         0.1358
     38 H16         0.5206  -10.1439   -0.7834 H         1 <0>         0.1352
     39 H17         2.6311   -9.2903   -1.7153 H         1 <0>         0.1382
     40 H18         3.1352   -6.8845   -1.6293 H         1 <0>         0.1387
     41 H19         1.4235   -5.4593    4.0762 H         1 <0>         0.1133
     42 H20         2.6513   -4.1767    3.9515 H         1 <0>         0.0672
     43 H21         1.1374   -3.8764    4.8382 H         1 <0>         0.0699
     44 H22        -0.9367   -0.3716   -0.0389 H         1 <0>         0.4280
@<TRIPOS>BOND
     1    1    2 1
     2    1   27 1
     3    1   28 1
     4    1   29 1
     5    2    7 1
     6    2    3 1
     7    2   44 1
     8    3    4 1
     9    3   13 1
    10    3    5 1
    11    5    6 1
    12    5   30 1
    13    5   31 1
    14    6    7 1
    15    6   32 1
    16    6   33 1
    17    7    8 1
    18    7    9 1
    19    9   10 1
    20    9   11 1
    21    9   23 1
    22   11   12 1
    23   11   13 1
    24   11   14 1
    25   13   34 1
    26   13   35 1
    27   14   15 1
    28   15   16 2
    29   15   17 1
    30   17   22 ar
    31   17   18 ar
    32   18   19 ar
    33   18   36 1
    34   19   20 ar
    35   19   37 1
    36   20   21 ar
    37   20   38 1
    38   21   22 ar
    39   21   39 1
    40   22   40 1
    41   23   24 2
    42   23   25 1
    43   25   26 1
    44   26   41 1
    45   26   42 1
    46   26   43 1
