@<TRIPOS>MOLECULE
ZINC01529323
   53    55     0     0     0
SMALL
USER_CHARGES

@<TRIPOS>ATOM
      1 C1         -0.0178    1.4608    0.0101 C.3       1 <0>         0.0943
      2 N1          0.0021   -0.0041    0.0020 N.pl3     1 <0>        -0.6229
      3 C2          0.0241   -0.7433    1.2666 C.3       1 <0>         0.1846
      4 C3         -1.3889   -1.0161    1.7137 C.ar      1 <0>         0.0299
      5 C4         -1.9892   -2.2351    1.3999 C.ar      1 <0>         0.1556
      6 N2         -3.2219   -2.4965    1.7797 N.ar      1 <0>        -0.4373
      7 C5         -3.9051   -1.5830    2.4739 C.ar      1 <0>         0.3718
      8 C6         -3.2902   -0.3458    2.7901 C.ar      1 <0>        -0.0918
      9 N3         -2.0425   -0.1038    2.4012 N.ar      1 <0>        -0.3728
     10 C7         -4.0706    0.6301    3.5527 C.ar      1 <0>         0.5432
     11 N4         -5.3055    0.2953    3.9004 N.ar      1 <0>        -0.6300
     12 C8         -5.8196   -0.8850    3.5693 C.ar      1 <0>         0.6362
     13 N5         -5.1609   -1.7987    2.8845 N.ar      1 <0>        -0.5990
     14 N6         -7.1130   -1.1692    3.9639 N.pl3     1 <0>        -0.8099
     15 N7         -3.5402    1.8539    3.8976 N.pl3     1 <0>        -0.7943
     16 C9          0.0000   -0.6928   -1.2059 C.ar      1 <0>         0.2179
     17 C10         0.0132   -2.0849   -1.2118 C.ar      1 <0>        -0.2113
     18 C11         0.0112   -2.7693   -2.4056 C.ar      1 <0>        -0.0159
     19 C12        -0.0041   -2.0653   -3.6133 C.ar      1 <0>        -0.1590
     20 C13        -0.0173   -0.6674   -3.6040 C.ar      1 <0>        -0.0366
     21 C14        -0.0210    0.0112   -2.4068 C.ar      1 <0>        -0.1985
     22 C15        -0.0058   -2.7960   -4.8948 C.2       1 <0>         0.5556
     23 O1          0.0061   -4.0119   -4.9015 O.2       1 <0>        -0.5600
     24 N8         -0.0205   -2.1158   -6.0583 N.am      1 <0>        -0.6793
     25 C16        -0.0222   -2.8414   -7.3310 C.3       1 <0>         0.0733
     26 H1         -0.6020   -3.7584   -7.2256 H         1 <0>         0.0773
     27 C17        -0.6480   -1.9644   -8.4172 C.3       1 <0>        -0.0801
     28 C18        -2.1222   -1.7198   -8.0888 C.3       1 <0>        -0.1777
     29 C19        -2.7386   -0.8559   -9.1588 C.2       1 <0>         0.4909
     30 O2         -2.0616   -0.4715  -10.0971 O.co2     1 <0>        -0.6975
     31 O3         -3.9143   -0.5414   -9.0862 O.co2     1 <0>        -0.7207
     32 C20         1.3940   -3.1839   -7.7158 C.2       1 <0>         0.4958
     33 O4          2.3190   -2.8526   -6.9939 O.co2     1 <0>        -0.6970
     34 O5          1.6147   -3.7923   -8.7491 O.co2     1 <0>        -0.7014
     35 H2          1.0048    1.8381    0.0023 H         1 <0>         0.0502
     36 H3         -0.5450    1.8219   -0.8730 H         1 <0>         0.0690
     37 H4         -0.5280    1.8123    0.9069 H         1 <0>         0.0657
     38 H5          0.5496   -1.6879    1.1262 H         1 <0>         0.1015
     39 H6          0.5371   -0.1514    2.0246 H         1 <0>         0.0948
     40 H7         -1.4361   -2.9733    0.8382 H         1 <0>         0.1815
     41 H8         -7.6209   -0.5150    4.4689 H         1 <0>         0.4148
     42 H9         -7.5132   -2.0229    3.7358 H         1 <0>         0.4190
     43 H10        -2.6346    2.0814    3.6347 H         1 <0>         0.4250
     44 H11        -4.0722    2.4880    4.4032 H         1 <0>         0.4139
     45 H12         0.0253   -2.6282   -0.2785 H         1 <0>         0.1208
     46 H13         0.0217   -3.8493   -2.4096 H         1 <0>         0.1351
     47 H14        -0.0287   -0.1208   -4.5353 H         1 <0>         0.1282
     48 H15        -0.0359    1.0910   -2.3989 H         1 <0>         0.1244
     49 H16        -0.0300   -1.1459   -6.0530 H         1 <0>         0.3877
     50 H17        -0.1225   -1.0104   -8.4615 H         1 <0>         0.0543
     51 H18        -0.5691   -2.4677   -9.3808 H         1 <0>         0.0783
     52 H19        -2.6477   -2.6737   -8.0445 H         1 <0>         0.0522
     53 H20        -2.2011   -1.2164   -7.1252 H         1 <0>         0.0501
@<TRIPOS>BOND
     1    1    2 1
     2    1   35 1
     3    1   36 1
     4    1   37 1
     5    2    3 1
     6    2   16 1
     7    3    4 1
     8    3   38 1
     9    3   39 1
    10    4    9 ar
    11    4    5 ar
    12    5    6 ar
    13    5   40 1
    14    6    7 ar
    15    7   13 ar
    16    7    8 ar
    17    8    9 ar
    18    8   10 ar
    19   10   11 ar
    20   10   15 1
    21   11   12 ar
    22   12   13 ar
    23   12   14 1
    24   14   41 1
    25   14   42 1
    26   15   43 1
    27   15   44 1
    28   16   21 ar
    29   16   17 ar
    30   17   18 ar
    31   17   45 1
    32   18   19 ar
    33   18   46 1
    34   19   20 ar
    35   19   22 1
    36   20   21 ar
    37   20   47 1
    38   21   48 1
    39   22   23 2
    40   22   24 am
    41   24   25 1
    42   24   49 1
    43   25   26 1
    44   25   27 1
    45   25   32 1
    46   27   28 1
    47   27   50 1
    48   27   51 1
    49   28   29 1
    50   28   52 1
    51   28   53 1
    52   29   30 2
    53   29   31 1
    54   32   33 2
    55   32   34 1
