@<TRIPOS>MOLECULE
ZINC03871701
   40    42     0     0     0
SMALL
USER_CHARGES

@<TRIPOS>ATOM
      1 C1         -0.0187    1.5258    0.0104 C.3       1 <0>        -0.1217
      2 C2          0.0021   -0.0041    0.0020 C.3       1 <0>         0.0320
      3 C3          0.9183   -0.5578   -1.1267 C.3       1 <0>         0.0309
      4 H1          1.7655    0.1146   -1.2616 H         1 <0>         0.0693
      5 N1          1.4152   -1.8973   -0.7968 N.am      1 <0>        -0.5074
      6 C4          1.5639   -2.1961    0.6340 C.3       1 <0>         0.1068
      7 H2          1.1313   -3.1348    0.9800 H         1 <0>         0.1538
      8 S1          0.9226   -0.6800    1.4567 S.3       1 <0>        -0.3060
      9 C5          3.0673   -2.2015    0.4210 C.3       1 <0>         0.0838
     10 H3          3.5574   -3.1223    0.7376 H         1 <0>         0.1373
     11 C6          2.7129   -2.1678   -1.0358 C.2       1 <0>         0.4946
     12 O1          3.3561   -2.3252   -2.0520 O.2       1 <0>        -0.4369
     13 N2          3.7428   -0.9941    0.9027 N.am      1 <0>        -0.6970
     14 C7          5.0446   -1.0426    1.2482 C.2       1 <0>         0.5186
     15 O2          5.6569   -2.0859    1.1604 O.2       1 <0>        -0.5239
     16 C8          5.7395    0.1994    1.7437 C.3       1 <0>        -0.1011
     17 C9          7.1775   -0.1217    2.0598 C.ar      1 <0>        -0.0652
     18 C10         7.5278   -0.5500    3.3266 C.ar      1 <0>        -0.1043
     19 C11         8.8469   -0.8446    3.6166 C.ar      1 <0>        -0.1210
     20 C12         9.8157   -0.7112    2.6396 C.ar      1 <0>        -0.1215
     21 C13         9.4653   -0.2838    1.3725 C.ar      1 <0>        -0.1195
     22 C14         8.1456    0.0066    1.0814 C.ar      1 <0>        -0.1034
     23 C15         0.1332   -0.6267   -2.4112 C.2       1 <0>         0.5135
     24 O3          0.1177    0.3290   -3.1682 O.co2     1 <0>        -0.6854
     25 O4         -0.4864   -1.6381   -2.6935 O.co2     1 <0>        -0.6574
     26 C16        -1.4126   -0.5802   -0.0861 C.3       1 <0>        -0.1237
     27 H4          1.0039    1.9031    0.0027 H         1 <0>         0.0641
     28 H5         -0.5459    1.8868   -0.8726 H         1 <0>         0.0878
     29 H6         -0.5289    1.8773    0.9072 H         1 <0>         0.0661
     30 H7          3.2531   -0.1597    0.9729 H         1 <0>         0.4137
     31 H8          5.7000    0.9696    0.9735 H         1 <0>         0.1065
     32 H9          5.2414    0.5599    2.6438 H         1 <0>         0.1077
     33 H10         6.7708   -0.6542    4.0899 H         1 <0>         0.1200
     34 H11         9.1206   -1.1785    4.6065 H         1 <0>         0.1206
     35 H12        10.8464   -0.9407    2.8663 H         1 <0>         0.1195
     36 H13        10.2223   -0.1793    0.6093 H         1 <0>         0.1213
     37 H14         7.8713    0.3370    0.0904 H         1 <0>         0.1209
     38 H15        -1.8843   -0.2455   -1.0100 H         1 <0>         0.0790
     39 H16        -1.3627   -1.6690   -0.0774 H         1 <0>         0.0696
     40 H17        -1.9986   -0.2365    0.7662 H         1 <0>         0.0579
@<TRIPOS>BOND
     1    1    2 1
     2    1   27 1
     3    1   28 1
     4    1   29 1
     5    2    8 1
     6    2    3 1
     7    2   26 1
     8    3    4 1
     9    3    5 1
    10    3   23 1
    11    5   11 am
    12    5    6 1
    13    6    7 1
    14    6    8 1
    15    6    9 1
    16    9   10 1
    17    9   11 1
    18    9   13 1
    19   11   12 2
    20   13   14 am
    21   13   30 1
    22   14   15 2
    23   14   16 1
    24   16   17 1
    25   16   31 1
    26   16   32 1
    27   17   22 ar
    28   17   18 ar
    29   18   19 ar
    30   18   33 1
    31   19   20 ar
    32   19   34 1
    33   20   21 ar
    34   20   35 1
    35   21   22 ar
    36   21   36 1
    37   22   37 1
    38   23   24 2
    39   23   25 1
    40   26   38 1
    41   26   39 1
    42   26   40 1
