@<TRIPOS>MOLECULE
ZINC03780893
   68    70     0     0     0
SMALL
USER_CHARGES

@<TRIPOS>ATOM
      1 C1          0.3974   -1.4467    1.3474 C.3       1 <0>        -0.1544
      2 C2          1.0352   -2.6689    0.6837 C.3       1 <0>        -0.1054
      3 C3          1.4028   -2.3302   -0.7623 C.3       1 <0>        -0.0533
      4 C4          0.1401   -1.9338   -1.5300 C.3       1 <0>        -0.1451
      5 C5          2.3952   -1.1659   -0.7769 C.3       1 <0>        -0.1507
      6 C6          2.0310   -3.5340   -1.4160 C.2       1 <0>         0.4575
      7 O1          2.2848   -4.5151   -0.7581 O.2       1 <0>        -0.5029
      8 O2          2.3085   -3.5163   -2.7292 O.3       1 <0>        -0.3195
      9 C7          2.8166   -4.7232   -3.3013 C.3       1 <0>         0.0961
     10 H1          3.5368   -5.1654   -2.6130 H         1 <0>         0.0786
     11 C8          1.6609   -5.7004   -3.5060 C.3       1 <0>        -0.1327
     12 C9          2.2174   -6.9798   -4.1468 C.3       1 <0>        -0.0588
     13 H2          2.9972   -7.4018   -3.5129 H         1 <0>         0.0840
     14 C10         2.7955   -6.6046   -5.4873 C.2       1 <0>        -0.1388
     15 C11         3.3557   -5.4245   -5.6766 C.2       1 <0>        -0.0859
     16 C12         3.5151   -4.3952   -4.5985 C.3       1 <0>        -0.0421
     17 H3          4.5808   -4.3174   -4.3833 H         1 <0>         0.0844
     18 C13         3.0798   -3.0417   -5.1636 C.3       1 <0>        -0.0595
     19 H4          2.0514   -3.1074   -5.5190 H         1 <0>         0.0733
     20 C14         4.0029   -2.6777   -6.3279 C.3       1 <0>        -0.0610
     21 H5          3.5964   -1.8087   -6.8453 H         1 <0>         0.0826
     22 C15         4.1387   -3.8072   -7.3028 C.2       1 <0>        -0.1375
     23 C16         3.8604   -5.0669   -7.0224 C.2       1 <0>        -0.1245
     24 C17         5.3865   -2.3275   -5.7767 C.3       1 <0>        -0.1623
     25 C18         3.1787   -1.9739   -4.0723 C.3       1 <0>        -0.1130
     26 C19         3.3578   -0.5989   -4.7190 C.3       1 <0>        -0.1430
     27 C20         3.9489    0.3728   -3.6956 C.3       1 <0>         0.1069
     28 H6          3.2707    0.4650   -2.8473 H         1 <0>         0.0868
     29 C21         4.1429    1.7450   -4.3464 C.3       1 <0>        -0.1541
     30 C22         4.7732    2.7039   -3.3313 C.3       1 <0>         0.1045
     31 H7          4.9246    3.6786   -3.7950 H         1 <0>         0.0783
     32 C23         6.1243    2.1328   -2.8823 C.3       1 <0>        -0.2058
     33 C24         5.9101    0.7040   -2.4329 C.2       1 <0>         0.4952
     34 O3          6.3486    0.3121   -1.3775 O.2       1 <0>        -0.4521
     35 O4          5.2152   -0.1203   -3.2440 O.3       1 <0>        -0.3644
     36 O5          3.9091    2.8404   -2.2013 O.3       1 <0>        -0.5628
     37 C25         1.0916   -7.9991   -4.3326 C.3       1 <0>        -0.1420
     38 H8          1.1044   -0.6172    1.3370 H         1 <0>         0.0592
     39 H9         -0.5022   -1.1643    0.8005 H         1 <0>         0.0594
     40 H10         0.1355   -1.6880    2.3776 H         1 <0>         0.0589
     41 H11         1.9347   -2.9513    1.2307 H         1 <0>         0.0722
     42 H12         0.3281   -3.4984    0.6942 H         1 <0>         0.0684
     43 H13        -0.3143   -1.0631   -1.0572 H         1 <0>         0.0753
     44 H14         0.4020   -1.6925   -2.5602 H         1 <0>         0.0696
     45 H15        -0.5669   -2.7633   -1.5196 H         1 <0>         0.0600
     46 H16         3.0916   -1.2715    0.0550 H         1 <0>         0.0638
     47 H17         2.9480   -1.1714   -1.7164 H         1 <0>         0.0724
     48 H18         1.8532   -0.2252   -0.6798 H         1 <0>         0.0739
     49 H19         1.2069   -5.9389   -2.5442 H         1 <0>         0.0741
     50 H20         0.9151   -5.2545   -4.1641 H         1 <0>         0.0749
     51 H21         2.7512   -7.3106   -6.3033 H         1 <0>         0.1156
     52 H22         4.4904   -3.5766   -8.2976 H         1 <0>         0.1060
     53 H23         3.9951   -5.8321   -7.7725 H         1 <0>         0.1181
     54 H24         5.7921   -3.1857   -5.2409 H         1 <0>         0.0546
     55 H25         6.0506   -2.0667   -6.6008 H         1 <0>         0.0514
     56 H26         5.3026   -1.4805   -5.0958 H         1 <0>         0.0864
     57 H27         2.2666   -1.9788   -3.4756 H         1 <0>         0.1007
     58 H28         4.0337   -2.1880   -3.4310 H         1 <0>         0.0730
     59 H29         4.0318   -0.6833   -5.5714 H         1 <0>         0.0956
     60 H30         2.3902   -0.2272   -5.0562 H         1 <0>         0.0833
     61 H31         4.7993    1.6479   -5.2111 H         1 <0>         0.0948
     62 H32         3.1767    2.1362   -4.6649 H         1 <0>         0.0976
     63 H33         6.8274    2.1547   -3.7149 H         1 <0>         0.1174
     64 H34         6.5160    2.7236   -2.0543 H         1 <0>         0.1066
     65 H35         4.2470    3.4348   -1.5174 H         1 <0>         0.3858
     66 H36         0.3226   -7.5773   -4.9798 H         1 <0>         0.0571
     67 H37         1.4929   -8.9047   -4.7877 H         1 <0>         0.0591
     68 H38         0.6573   -8.2417   -3.3627 H         1 <0>         0.0580
@<TRIPOS>BOND
     1    1    2 1
     2    1   38 1
     3    1   39 1
     4    1   40 1
     5    2    3 1
     6    2   41 1
     7    2   42 1
     8    3    4 1
     9    3    5 1
    10    3    6 1
    11    4   43 1
    12    4   44 1
    13    4   45 1
    14    5   46 1
    15    5   47 1
    16    5   48 1
    17    6    7 2
    18    6    8 1
    19    8    9 1
    20    9   10 1
    21    9   16 1
    22    9   11 1
    23   11   12 1
    24   11   49 1
    25   11   50 1
    26   12   13 1
    27   12   14 1
    28   12   37 1
    29   14   15 2
    30   14   51 1
    31   15   23 1
    32   15   16 1
    33   16   17 1
    34   16   18 1
    35   18   19 1
    36   18   20 1
    37   18   25 1
    38   20   21 1
    39   20   22 1
    40   20   24 1
    41   22   23 2
    42   22   52 1
    43   23   53 1
    44   24   54 1
    45   24   55 1
    46   24   56 1
    47   25   26 1
    48   25   57 1
    49   25   58 1
    50   26   27 1
    51   26   59 1
    52   26   60 1
    53   27   28 1
    54   27   35 1
    55   27   29 1
    56   29   30 1
    57   29   61 1
    58   29   62 1
    59   30   31 1
    60   30   32 1
    61   30   36 1
    62   32   33 1
    63   32   63 1
    64   32   64 1
    65   33   34 2
    66   33   35 1
    67   36   65 1
    68   37   66 1
    69   37   67 1
    70   37   68 1
