@<TRIPOS>MOLECULE
ZINC06500184
   49    52     0     0     0
SMALL
USER_CHARGES

@<TRIPOS>ATOM
      1 C1         -0.0187    1.5258    0.0104 C.3       1 <0>        -0.1340
      2 C2          0.0021   -0.0041    0.0020 C.3       1 <0>        -0.0575
      3 C3         -1.4158   -0.5376    0.0743 C.3       1 <0>        -0.1031
      4 C4         -2.0776    0.1004    1.3058 C.3       1 <0>        -0.1217
      5 C5         -1.2987   -0.1970    2.5836 C.3       1 <0>        -0.0658
      6 H1         -1.3515   -1.2658    2.7907 H         1 <0>         0.0710
      7 C6          0.1752    0.2165    2.4630 C.3       1 <0>        -0.0778
      8 H2          0.2494    1.2951    2.3243 H         1 <0>         0.0900
      9 C7          0.7514   -0.5272    1.2569 C.3       1 <0>        -0.0832
     10 H3          0.6125   -1.6031    1.3628 H         1 <0>         0.0775
     11 C8          2.2067   -0.1924    0.9110 C.3       1 <0>        -0.1133
     12 C9          2.3039   -0.5736   -0.5914 C.3       1 <0>        -0.1573
     13 C10         0.8625   -0.5030   -1.1542 C.3       1 <0>         0.1103
     14 H4          0.5320   -1.4921   -1.4715 H         1 <0>         0.0566
     15 O1          0.8024    0.4146   -2.2480 O.3       1 <0>        -0.5599
     16 C11         0.9157   -0.1993    3.7375 C.3       1 <0>        -0.1136
     17 C12         0.3625    0.5959    4.9221 C.3       1 <0>        -0.0979
     18 C13        -1.1396    0.3896    4.9907 C.2       1 <0>        -0.0157
     19 C14        -1.6676    0.0666    6.1711 C.2       1 <0>        -0.2431
     20 C15        -3.1159   -0.1282    6.2982 C.2       1 <0>         0.3881
     21 O2         -3.5965   -0.7740    7.2060 O.2       1 <0>        -0.4582
     22 C16        -3.9807    0.5207    5.2350 C.3       1 <0>        -0.1685
     23 C17        -3.3979    0.1372    3.8755 C.3       1 <0>        -0.1050
     24 C18        -1.9353    0.5692    3.7501 C.3       1 <0>        -0.0312
     25 C19        -1.9191    2.0586    3.4006 C.3       1 <0>        -0.1502
     26 H5          1.0039    1.9031    0.0027 H         1 <0>         0.0538
     27 H6         -0.5459    1.8868   -0.8726 H         1 <0>         0.0594
     28 H7         -0.5289    1.8773    0.9072 H         1 <0>         0.0609
     29 H8         -1.9632   -0.2607   -0.8268 H         1 <0>         0.0672
     30 H9         -1.3995   -1.6222    0.1815 H         1 <0>         0.0623
     31 H10        -2.1276    1.1799    1.1632 H         1 <0>         0.0756
     32 H11        -3.0901   -0.2904    1.4077 H         1 <0>         0.0651
     33 H12         2.4020    0.8706    1.0526 H         1 <0>         0.0707
     34 H13         2.8929   -0.7943    1.5068 H         1 <0>         0.0660
     35 H14         2.9456    0.1342   -1.1162 H         1 <0>         0.0725
     36 H15         2.6974   -1.5847   -0.6961 H         1 <0>         0.0666
     37 H16         1.3308    0.1496   -3.0133 H         1 <0>         0.3752
     38 H17         0.7681   -1.2649    3.9134 H         1 <0>         0.0654
     39 H18         1.9798    0.0081    3.6247 H         1 <0>         0.0717
     40 H19         0.8223    0.2433    5.8454 H         1 <0>         0.0773
     41 H20         0.5800    1.6550    4.7845 H         1 <0>         0.0842
     42 H21        -1.0290   -0.0520    7.0340 H         1 <0>         0.1336
     43 H22        -5.0043    0.1549    5.3159 H         1 <0>         0.0921
     44 H23        -3.9630    1.6041    5.3535 H         1 <0>         0.0997
     45 H24        -3.4588   -0.9444    3.7551 H         1 <0>         0.0683
     46 H25        -3.9842    0.6144    3.0902 H         1 <0>         0.0838
     47 H26        -2.4886    2.2234    2.4859 H         1 <0>         0.0698
     48 H27        -2.3671    2.6278    4.2151 H         1 <0>         0.0583
     49 H28        -0.8900    2.3857    3.2518 H         1 <0>         0.0638
@<TRIPOS>BOND
     1    1    2 1
     2    1   26 1
     3    1   27 1
     4    1   28 1
     5    2    9 1
     6    2   13 1
     7    2    3 1
     8    3    4 1
     9    3   29 1
    10    3   30 1
    11    4    5 1
    12    4   31 1
    13    4   32 1
    14    5    6 1
    15    5   24 1
    16    5    7 1
    17    7    8 1
    18    7    9 1
    19    7   16 1
    20    9   10 1
    21    9   11 1
    22   11   12 1
    23   11   33 1
    24   11   34 1
    25   12   13 1
    26   12   35 1
    27   12   36 1
    28   13   14 1
    29   13   15 1
    30   15   37 1
    31   16   17 1
    32   16   38 1
    33   16   39 1
    34   17   18 1
    35   17   40 1
    36   17   41 1
    37   18   24 1
    38   18   19 2
    39   19   20 1
    40   19   42 1
    41   20   21 2
    42   20   22 1
    43   22   23 1
    44   22   43 1
    45   22   44 1
    46   23   24 1
    47   23   45 1
    48   23   46 1
    49   24   25 1
    50   25   47 1
    51   25   48 1
    52   25   49 1
