@<TRIPOS>MOLECULE
ZINC00049153
   35    36     0     0     0
SMALL
USER_CHARGES

@<TRIPOS>ATOM
      1 C1          0.0612    1.5261    0.0180 C.3       1 <0>        -0.1132
      2 C2          0.1731    0.0235   -0.0084 C.2       1 <0>         0.0481
      3 C3          0.2013   -0.6658   -1.1777 C.2       1 <0>        -0.1453
      4 S1          0.3393   -2.3392   -0.5700 S.3       1 <0>         0.4232
      5 C4          0.3461   -1.9874    1.0759 C.2       1 <0>        -0.0003
      6 N1          0.2536   -0.6812    1.1026 N.pl3     1 <0>        -0.3608
      7 C5          0.2335    0.0104    2.3939 C.3       1 <0>         0.1215
      8 C6          0.4731   -0.9844    3.5003 C.ar      1 <0>        -0.3518
      9 C7         -0.5850   -1.5588    4.1772 C.ar      1 <0>         0.2243
     10 N2         -0.3371   -2.4299    5.1450 N.ar      1 <0>        -0.5494
     11 C8          0.8993   -2.7529    5.4674 C.ar      1 <0>         0.4008
     12 N3          1.9381   -2.2294    4.8489 N.ar      1 <0>        -0.5697
     13 C9          1.7701   -1.3528    3.8629 C.ar      1 <0>         0.4713
     14 N4          2.8646   -0.8091    3.2104 N.pl3     1 <0>        -0.8293
     15 C10         1.1312   -3.7483    6.5749 C.3       1 <0>        -0.1002
     16 C11         0.1347   -0.1592   -2.5954 C.3       1 <0>        -0.0463
     17 C12         1.5503    0.1203   -3.1042 C.3       1 <0>         0.0802
     18 O1          1.4871    0.6007   -4.4485 O.3       1 <0>        -0.5657
     19 H1          1.0569    1.9633    0.0927 H         1 <0>         0.1058
     20 H2         -0.4192    1.8708   -0.8977 H         1 <0>         0.1135
     21 H3         -0.5349    1.8310    0.8780 H         1 <0>         0.0954
     22 H4          0.4143   -2.6723    1.9082 H         1 <0>         0.2497
     23 H5          1.0158    0.7692    2.4119 H         1 <0>         0.1255
     24 H6         -0.7370    0.4856    2.5365 H         1 <0>         0.1385
     25 H7         -1.6021   -1.3009    3.9213 H         1 <0>         0.1748
     26 H8          2.7333   -0.1671    2.4953 H         1 <0>         0.4067
     27 H9          3.7623   -1.0706    3.4686 H         1 <0>         0.4212
     28 H10         1.1654   -4.7547    6.1576 H         1 <0>         0.0994
     29 H11         2.0772   -3.5277    7.0694 H         1 <0>         0.0952
     30 H12         0.3188   -3.6825    7.2986 H         1 <0>         0.0985
     31 H13        -0.3369   -0.9111   -3.2281 H         1 <0>         0.1135
     32 H14        -0.4504    0.7600   -2.6257 H         1 <0>         0.1204
     33 H15         2.0219    0.8722   -2.4715 H         1 <0>         0.0545
     34 H16         2.1354   -0.7988   -3.0739 H         1 <0>         0.0529
     35 H17         2.3505    0.7991   -4.8363 H         1 <0>         0.3970
@<TRIPOS>BOND
     1    1    2 1
     2    1   19 1
     3    1   20 1
     4    1   21 1
     5    2    6 1
     6    2    3 2
     7    3    4 1
     8    3   16 1
     9    4    5 1
    10    5    6 2
    11    5   22 1
    12    6    7 1
    13    7    8 1
    14    7   23 1
    15    7   24 1
    16    8   13 ar
    17    8    9 ar
    18    9   10 ar
    19    9   25 1
    20   10   11 ar
    21   11   12 ar
    22   11   15 1
    23   12   13 ar
    24   13   14 1
    25   14   26 1
    26   14   27 1
    27   15   28 1
    28   15   29 1
    29   15   30 1
    30   16   17 1
    31   16   31 1
    32   16   32 1
    33   17   18 1
    34   17   33 1
    35   17   34 1
    36   18   35 1
