@<TRIPOS>MOLECULE
ZINC00001795
   13    13     0     0     0
SMALL
USER_CHARGES

@<TRIPOS>ATOM
      1 C1         -0.0167    1.3791    0.0096 C.ar      1 <0>        -0.1926
      2 C2          1.1803    2.0730    0.0019 C.ar      1 <0>        -0.0479
      3 C3          2.3734    1.3382   -0.0134 C.ar      1 <0>        -0.1831
      4 C4          2.3058   -0.0572   -0.0203 C.ar      1 <0>         0.1236
      5 N1          1.1411   -0.6705   -0.0129 N.ar      1 <0>        -0.5027
      6 C5          0.0021   -0.0041    0.0020 C.ar      1 <0>         0.0785
      7 C6          3.6785    2.0263   -0.0227 C.2       1 <0>         0.5243
      8 O1          3.7254    3.2483   -0.0170 O.co2     1 <0>        -0.6845
      9 O2          4.7132    1.3746   -0.0360 O.co2     1 <0>        -0.6822
     10 H1         -0.9560    1.9119    0.0259 H         1 <0>         0.1254
     11 H2          1.1948    3.1529    0.0072 H         1 <0>         0.1357
     12 H3          3.2166   -0.6374   -0.0321 H         1 <0>         0.1607
     13 H4         -0.9311   -0.5477    0.0080 H         1 <0>         0.1448
@<TRIPOS>BOND
     1    1    6 ar
     2    1    2 ar
     3    1   10 1
     4    2    3 ar
     5    2   11 1
     6    3    4 ar
     7    3    7 1
     8    4    5 ar
     9    4   12 1
    10    5    6 ar
    11    6   13 1
    12    7    8 2
    13    7    9 1
