@<TRIPOS>MOLECULE
ZINC18279942
   31    30     0     0     0
SMALL
USER_CHARGES

@<TRIPOS>ATOM
      1 C1          0.4380   -0.3781    1.2647 C.3       1 <0>        -0.1554
      2 C2         -0.0633    0.1562   -0.0785 C.3       1 <0>        -0.0882
      3 C3         -1.5209   -0.2623   -0.2819 C.3       1 <0>        -0.1307
      4 C4          0.0351    1.6830   -0.0888 C.3       1 <0>         0.0797
      5 O1         -0.7661    2.2192    0.9660 O.3       1 <0>        -0.5653
      6 C5          0.7945   -0.4178   -1.2079 C.3       1 <0>         0.1003
      7 H1          0.8062   -1.5055   -1.1384 H         1 <0>         0.1263
      8 C6          2.2014    0.1085   -1.0873 C.2       1 <0>         0.4773
      9 O2          2.6355    0.8754   -1.9205 O.2       1 <0>        -0.5364
     10 N1          2.9774   -0.2731   -0.0535 N.am      1 <0>        -0.7235
     11 C7          4.3095    0.3120    0.1176 C.3       1 <0>         0.1377
     12 C8          4.9749   -0.2886    1.3575 C.3       1 <0>        -0.1960
     13 C9          6.3452    0.3133    1.5335 C.2       1 <0>         0.4953
     14 O3          6.7520    1.1454    0.7407 O.co2     1 <0>        -0.6927
     15 O4          7.0472   -0.0319    2.4687 O.co2     1 <0>        -0.7003
     16 O5          0.2461   -0.0270   -2.4683 O.3       1 <0>        -0.5350
     17 H2          0.4755   -1.4669    1.2314 H         1 <0>         0.0602
     18 H3          1.4357    0.0140    1.4622 H         1 <0>         0.0692
     19 H4         -0.2401   -0.0619    2.0574 H         1 <0>         0.0731
     20 H5         -2.1414    0.1963    0.4880 H         1 <0>         0.0660
     21 H6         -1.8593    0.0660   -1.2646 H         1 <0>         0.0610
     22 H7         -1.6002   -1.3472   -0.2140 H         1 <0>         0.0560
     23 H8          1.0735    1.9812    0.0561 H         1 <0>         0.0517
     24 H9         -0.3220    2.0637   -1.0457 H         1 <0>         0.0463
     25 H10        -0.7512    3.1846    1.0195 H         1 <0>         0.3801
     26 H11         2.6538   -0.9352    0.5773 H         1 <0>         0.3974
     27 H12         4.9169    0.0959   -0.7614 H         1 <0>         0.0701
     28 H13         4.2193    1.3913    0.2404 H         1 <0>         0.0682
     29 H14         4.3676   -0.0725    2.2365 H         1 <0>         0.0635
     30 H15         5.0651   -1.3679    1.2347 H         1 <0>         0.0639
     31 H16         0.2049    0.9302   -2.5995 H         1 <0>         0.3801
@<TRIPOS>BOND
     1    1    2 1
     2    1   17 1
     3    1   18 1
     4    1   19 1
     5    2    3 1
     6    2    4 1
     7    2    6 1
     8    3   20 1
     9    3   21 1
    10    3   22 1
    11    4    5 1
    12    4   23 1
    13    4   24 1
    14    5   25 1
    15    6    7 1
    16    6    8 1
    17    6   16 1
    18    8    9 2
    19    8   10 am
    20   10   11 1
    21   10   26 1
    22   11   12 1
    23   11   27 1
    24   11   28 1
    25   12   13 1
    26   12   29 1
    27   12   30 1
    28   13   14 2
    29   13   15 1
    30   16   31 1
