@<TRIPOS>MOLECULE
ZINC17860482
   19    19     0     0     0
SMALL
USER_CHARGES

@<TRIPOS>ATOM
      1 C1         -0.0187    1.5258    0.0104 C.3       1 <0>         0.0468
      2 C2          0.0021   -0.0041    0.0020 C.3       1 <0>         0.2092
      3 H1          0.5883   -0.3548   -0.8473 H         1 <0>         0.1261
      4 C3         -1.4075   -0.5249   -0.1112 C.2       1 <0>        -0.0739
      5 H2         -0.9114   -2.0803   -2.5268 H         1 <0>         0.3663
      6 C4         -1.9631   -1.0610   -1.2165 C.2       1 <0>        -0.0487
      7 C5         -3.2940   -1.4143   -0.8773 C.2       1 <0>         0.1858
      8 C6         -3.4711   -1.0714    0.4189 C.2       1 <0>        -0.0907
      9 O1         -4.6122   -1.2416    1.1380 O.3       1 <0>        -0.4223
     10 O2         -2.3240   -0.5389    0.8773 O.3       1 <0>        -0.1991
     11 O3         -4.2178   -1.9889   -1.7001 O.3       1 <0>        -0.7221
     12 O4         -1.3616   -1.2303   -2.4268 O.3       1 <0>        -0.4706
     13 O5          0.5895   -0.4792    1.2150 O.3       1 <0>        -0.5515
     14 O6          1.3220    2.0204    0.0003 O.3       1 <0>        -0.5666
     15 H3         -0.5459    1.8868   -0.8726 H         1 <0>         0.0620
     16 H4         -0.5289    1.8773    0.9072 H         1 <0>         0.0526
     17 H5          0.1188   -0.2046    2.0138 H         1 <0>         0.3770
     18 H6          1.3852    2.9853    0.0049 H         1 <0>         0.3761
     19 H7         -4.6655   -2.0918    1.5957 H         1 <0>         0.3437
@<TRIPOS>BOND
     1    1    2 1
     2    1   14 1
     3    1   15 1
     4    1   16 1
     5    2    3 1
     6    2   13 1
     7    2    4 1
     8    4   10 1
     9    4    6 2
    10    5   12 1
    11    6    7 1
    12    6   12 1
    13    7    8 2
    14    7   11 1
    15    8    9 1
    16    8   10 1
    17    9   19 1
    18   13   17 1
    19   14   18 1
