@<TRIPOS>MOLECULE
ZINC03830316
   31    32     0     0     0
SMALL
USER_CHARGES

@<TRIPOS>ATOM
      1 C1         -0.0230    1.8412    0.0122 C.3       1 <0>        -0.0846
      2 C2          1.4861    2.1667   -0.0005 C.3       1 <0>         0.1235
      3 H1          1.6783    3.0713    0.5764 H         1 <0>         0.1046
      4 C3          2.3668    1.0216    0.5085 C.3       1 <0>         0.1210
      5 H2          2.9840    1.3650    1.3387 H         1 <0>         0.1061
      6 C4          1.5716   -0.2347    0.9242 C.3       1 <0>        -0.0433
      7 H3          1.3796   -0.2391    1.9971 H         1 <0>         0.1097
      8 S1          0.0021   -0.0041    0.0020 S.3       1 <0>        -0.2666
      9 C5          2.2970   -1.5112    0.4938 C.3       1 <0>        -0.1004
     10 C6          1.5447   -2.7308    1.0302 C.3       1 <0>        -0.1187
     11 C7          2.2701   -4.0073    0.5998 C.3       1 <0>        -0.0918
     12 C8          1.5179   -5.2269    1.1362 C.3       1 <0>        -0.1830
     13 C9          2.2323   -6.4842    0.7123 C.2       1 <0>         0.4874
     14 O1          3.2489   -6.4116    0.0432 O.co2     1 <0>        -0.6995
     15 O2          1.7938   -7.5740    1.0385 O.co2     1 <0>        -0.7092
     16 N1          3.2155    0.6837   -0.6450 N.am      1 <0>        -0.7278
     17 C10         2.8993    1.4871   -1.6699 C.2       1 <0>         0.7043
     18 O3          3.4470    1.4266   -2.7538 O.2       1 <0>        -0.5856
     19 N2          1.9262    2.3530   -1.3922 N.am      1 <0>        -0.7310
     20 H4         -0.4977    2.2212    0.9168 H         1 <0>         0.1037
     21 H5         -0.5148    2.2308   -0.8791 H         1 <0>         0.1141
     22 H6          2.3355   -1.5579   -0.5945 H         1 <0>         0.0800
     23 H7          3.3111   -1.5052    0.8933 H         1 <0>         0.0776
     24 H8          1.5062   -2.6841    2.1185 H         1 <0>         0.0577
     25 H9          0.5306   -2.7368    0.6307 H         1 <0>         0.0606
     26 H10         2.3086   -4.0540   -0.4885 H         1 <0>         0.0591
     27 H11         3.2842   -4.0012    0.9994 H         1 <0>         0.0585
     28 H12         1.4793   -5.1802    2.2246 H         1 <0>         0.0543
     29 H13         0.5038   -5.2329    0.7367 H         1 <0>         0.0547
     30 H14         3.8947   -0.0087   -0.6610 H         1 <0>         0.4351
     31 H15         1.5678    3.0059   -2.0136 H         1 <0>         0.4295
@<TRIPOS>BOND
     1    1    8 1
     2    1    2 1
     3    1   20 1
     4    1   21 1
     5    2    3 1
     6    2   19 1
     7    2    4 1
     8    4    5 1
     9    4    6 1
    10    4   16 1
    11    6    7 1
    12    6    8 1
    13    6    9 1
    14    9   10 1
    15    9   22 1
    16    9   23 1
    17   10   11 1
    18   10   24 1
    19   10   25 1
    20   11   12 1
    21   11   26 1
    22   11   27 1
    23   12   13 1
    24   12   28 1
    25   12   29 1
    26   13   14 2
    27   13   15 1
    28   16   17 am
    29   16   30 1
    30   17   18 2
    31   17   19 am
    32   19   31 1
