@<TRIPOS>MOLECULE
ZINC20461138
   40    43     0     0     0
SMALL
USER_CHARGES
2-[4-(benzofurano[2,3-e]pyrimidin-4-yl)piperazin-1-yl]ethanol
@<TRIPOS>ATOM
      1 C1          5.7387   -2.0528   -1.6738 C.ar      1 <0>        -0.1413
      2 C2          5.1380   -3.3021   -1.6956 C.ar      1 <0>        -0.0650
      3 C3          3.7821   -3.4325   -1.4855 C.ar      1 <0>        -0.1186
      4 C4          3.0020   -2.3064   -1.2478 C.ar      1 <0>         0.1001
      5 C5          3.6122   -1.0432   -1.2263 C.ar      1 <0>        -0.1299
      6 C6          4.9825   -0.9244   -1.4403 C.ar      1 <0>        -0.0362
      7 C7          2.5301   -0.0820   -0.9554 C.ar      1 <0>         0.1558
      8 C8          1.3648   -0.8485   -0.8376 C.ar      1 <0>        -0.0403
      9 O1          1.6808   -2.1476   -1.0149 O.3       1 <0>        -0.1795
     10 C9          0.1644   -0.1778   -0.5753 C.ar      1 <0>         0.3894
     11 N1          0.1853    1.1453   -0.4511 N.ar      1 <0>        -0.5280
     12 C10         1.3090    1.8270   -0.5702 C.ar      1 <0>         0.3126
     13 N2          2.4611    1.2392   -0.8168 N.ar      1 <0>        -0.4986
     14 N3         -1.0239   -0.8806   -0.4471 N.pl3     1 <0>        -0.4710
     15 C11        -1.2867   -1.6934   -1.6429 C.3       1 <0>         0.0592
     16 C12        -2.5621   -2.5122   -1.4298 C.3       1 <0>         0.0580
     17 N4         -3.6845   -1.6036   -1.1570 N.3       1 <0>        -0.5305
     18 C13        -3.4217   -0.7908    0.0388 C.3       1 <0>         0.0497
     19 C14        -2.1463    0.0279   -0.1743 C.3       1 <0>         0.0672
     20 C15        -4.9435   -2.3482   -1.0211 C.3       1 <0>         0.0529
     21 C16        -6.1237   -1.3961   -1.2250 C.3       1 <0>         0.0918
     22 O2         -6.1112   -0.9022   -2.5659 O.3       1 <0>        -0.5885
     23 H1          6.8021   -1.9635   -1.8398 H         1 <0>         0.1390
     24 H2          5.7379   -4.1812   -1.8793 H         1 <0>         0.1437
     25 H3          3.3250   -4.4108   -1.5047 H         1 <0>         0.1408
     26 H4          5.4513    0.0484   -1.4238 H         1 <0>         0.1378
     27 H5          1.2827    2.9013   -0.4622 H         1 <0>         0.2100
     28 H6         -1.4146   -1.0337   -2.5138 H         1 <0>         0.0624
     29 H7         -0.4391   -2.3722   -1.8184 H         1 <0>         0.0945
     30 H8         -2.7762   -3.0996   -2.3348 H         1 <0>         0.0915
     31 H9         -2.4232   -3.1917   -0.5760 H         1 <0>         0.0475
     32 H10        -4.2693   -0.1120    0.2143 H         1 <0>         0.0889
     33 H11        -3.2939   -1.4505    0.9097 H         1 <0>         0.0445
     34 H12        -1.9310    0.6153    0.7305 H         1 <0>         0.0958
     35 H13        -2.2840    0.7074   -1.0283 H         1 <0>         0.0682
     36 H14        -4.9811   -3.1460   -1.7775 H         1 <0>         0.0830
     37 H15        -5.0001   -2.7925   -0.0164 H         1 <0>         0.0538
     38 H16        -7.0651   -1.9346   -1.0414 H         1 <0>         0.0444
     39 H17        -6.0404   -0.5533   -0.5230 H         1 <0>         0.0409
     40 H18        -6.8887   -0.1998   -2.9006 H         1 <0>         0.4037
@<TRIPOS>BOND
     1    1    6 ar
     2    1    2 ar
     3    1   23 1
     4    2    3 ar
     5    2   24 1
     6    3    4 ar
     7    3   25 1
     8    4    9 1
     9    4    5 ar
    10    5    6 ar
    11    5    7 1
    12    6   26 1
    13    7   13 ar
    14    7    8 ar
    15    8    9 1
    16    8   10 ar
    17   10   11 ar
    18   10   14 1
    19   11   12 ar
    20   12   13 ar
    21   12   27 1
    22   14   19 1
    23   14   15 1
    24   15   16 1
    25   15   28 1
    26   15   29 1
    27   16   17 1
    28   16   30 1
    29   16   31 1
    30   17   18 1
    31   17   20 1
    32   18   19 1
    33   18   32 1
    34   18   33 1
    35   19   34 1
    36   19   35 1
    37   20   21 1
    38   20   36 1
    39   20   37 1
    40   21   22 1
    41   21   38 1
    42   21   39 1
    43   22   40 1
