@<TRIPOS>MOLECULE
ZINC08714283
   42    44     0     0     0
SMALL
USER_CHARGES

@<TRIPOS>ATOM
      1 C1         -0.0178    1.4648    0.0101 C.3       1 <0>        -0.0479
      2 N1          0.0021   -0.0041    0.0020 N.4       1 <0>        -0.5050
      3 C2          0.6897   -0.4778   -1.2066 C.3       1 <0>        -0.0444
      4 C3          0.7104   -2.0077   -1.2150 C.3       1 <0>         0.0623
      5 H1          1.1585   -2.3700   -0.2898 H         1 <0>         0.1287
      6 C4          1.5333   -2.5000   -2.4072 C.3       1 <0>         0.0860
      7 N2          1.6534   -3.9589   -2.3486 N.pl3     1 <0>        -0.4783
      8 C5          2.6590   -4.6444   -1.7025 C.ar      1 <0>         0.0927
      9 C6          3.7715   -4.2438   -0.9699 C.ar      1 <0>        -0.1387
     10 C7          4.6160   -5.1905   -0.4337 C.ar      1 <0>        -0.0932
     11 C8          4.3686   -6.5443   -0.6168 C.ar      1 <0>        -0.1413
     12 C9          3.2822   -6.9606   -1.3325 C.ar      1 <0>        -0.0658
     13 C10         2.4113   -6.0186   -1.8847 C.ar      1 <0>        -0.0938
     14 C11         1.1905   -6.1014   -2.6800 C.2       1 <0>        -0.1527
     15 C12         0.7815   -4.8412   -2.9215 C.2       1 <0>         0.0784
     16 C13        -0.4584   -4.5007   -3.7160 C.3       1 <0>        -0.0521
     17 C14        -0.8853   -5.7412   -4.5084 C.3       1 <0>        -0.1178
     18 C15        -0.9484   -6.9504   -3.5709 C.3       1 <0>        -0.1202
     19 C16         0.4789   -7.3408   -3.1581 C.3       1 <0>        -0.0511
     20 O1         -0.6262   -2.5016   -1.3223 O.3       1 <0>        -0.5420
     21 H2          1.0047    1.8421    0.0024 H         1 <0>         0.1246
     22 H3         -0.5450    1.8259   -0.8730 H         1 <0>         0.1242
     23 H4         -0.5280    1.8163    0.9069 H         1 <0>         0.1294
     24 H5          0.4901   -0.3383    0.8195 H         1 <0>         0.4322
     25 H6          0.1625   -0.1167   -2.0897 H         1 <0>         0.1392
     26 H7          1.7123   -0.1005   -1.2143 H         1 <0>         0.1449
     27 H8          1.0371   -2.2132   -3.3344 H         1 <0>         0.1015
     28 H9          2.5264   -2.0520   -2.3730 H         1 <0>         0.1044
     29 H10         3.9727   -3.1930   -0.8222 H         1 <0>         0.1124
     30 H11         5.4793   -4.8767    0.1345 H         1 <0>         0.1272
     31 H12         5.0407   -7.2741   -0.1902 H         1 <0>         0.1267
     32 H13         3.0972   -8.0155   -1.4711 H         1 <0>         0.1249
     33 H14        -1.2589   -4.2064   -3.0372 H         1 <0>         0.0827
     34 H15        -0.2395   -3.6842   -4.4042 H         1 <0>         0.0696
     35 H16        -1.8680   -5.5709   -4.9481 H         1 <0>         0.0743
     36 H17        -0.1614   -5.9331   -5.3004 H         1 <0>         0.0698
     37 H18        -1.5318   -6.6949   -2.6864 H         1 <0>         0.0656
     38 H19        -1.4178   -7.7874   -4.0878 H         1 <0>         0.0724
     39 H20         1.0134   -7.7653   -4.0079 H         1 <0>         0.0749
     40 H21         0.4309   -8.0705   -2.3499 H         1 <0>         0.0735
     41 H22        -1.0871   -2.2181   -2.1237 H         1 <0>         0.3866
     42 H23        -0.9445   -0.3533    0.0092 H         1 <0>         0.4353
@<TRIPOS>BOND
     1    1    2 1
     2    1   21 1
     3    1   22 1
     4    1   23 1
     5    2    3 1
     6    2   24 1
     7    2   42 1
     8    3    4 1
     9    3   25 1
    10    3   26 1
    11    4    5 1
    12    4    6 1
    13    4   20 1
    14    6    7 1
    15    6   27 1
    16    6   28 1
    17    7   15 1
    18    7    8 1
    19    8   13 ar
    20    8    9 ar
    21    9   10 ar
    22    9   29 1
    23   10   11 ar
    24   10   30 1
    25   11   12 ar
    26   11   31 1
    27   12   13 ar
    28   12   32 1
    29   13   14 1
    30   14   19 1
    31   14   15 2
    32   15   16 1
    33   16   17 1
    34   16   33 1
    35   16   34 1
    36   17   18 1
    37   17   35 1
    38   17   36 1
    39   18   19 1
    40   18   37 1
    41   18   38 1
    42   19   39 1
    43   19   40 1
    44   20   41 1
