@<TRIPOS>MOLECULE
ZINC02845325
   34    35     0     0     0
SMALL
USER_CHARGES
N-methyl-3-(1-naphthyloxy)propan-1-amine
@<TRIPOS>ATOM
      1 C1         -8.5753    2.9821    0.1002 C.3       1 <0>        -0.0432
      2 C2         -6.1545    2.9388    0.0770 C.3       1 <0>        -0.0027
      3 C3         -4.9013    3.8164    0.0692 C.3       1 <0>        -0.1527
      4 C4         -3.6562    2.9274    0.0532 C.3       1 <0>         0.0614
      5 O1         -2.4857    3.7471    0.0459 O.3       1 <0>        -0.3092
      6 C5         -1.2867    3.1096    0.0315 C.ar      1 <0>         0.1367
      7 C6         -1.2335    1.7440    0.0174 C.ar      1 <0>        -0.2149
      8 C7         -0.0126    1.0758    0.0080 C.ar      1 <0>        -0.0834
      9 C8          1.1637    1.7618    0.0004 C.ar      1 <0>        -0.1308
     10 C9          1.1521    3.1670    0.0080 C.ar      1 <0>        -0.0210
     11 C10        -0.0883    3.8519    0.0236 C.ar      1 <0>        -0.0677
     12 C11        -0.1002    5.2560    0.0304 C.ar      1 <0>        -0.0929
     13 C12         1.0769    5.9397    0.0224 C.ar      1 <0>        -0.1198
     14 C13         2.2972    5.2668    0.0074 C.ar      1 <0>        -0.1006
     15 C14         2.3471    3.9067    0.0001 C.ar      1 <0>        -0.1116
     16 H1         -9.4452    3.6389    0.1116 H         1 <0>         0.1274
     17 H2         -8.6035    2.3573   -0.7925 H         1 <0>         0.1236
     18 H3         -8.5866    2.3489    0.9873 H         1 <0>         0.1236
     19 H4         -6.1659    2.3137   -0.8159 H         1 <0>         0.1351
     20 H5         -6.1490    2.3053    0.9640 H         1 <0>         0.1351
     21 H6         -4.8900    4.4415    0.9621 H         1 <0>         0.0999
     22 H7         -4.9069    4.4499   -0.8178 H         1 <0>         0.0999
     23 H8         -3.6676    2.3023   -0.8397 H         1 <0>         0.0738
     24 H9         -3.6506    2.2939    0.9402 H         1 <0>         0.0738
     25 H10        -2.1517    1.1754    0.0187 H         1 <0>         0.1247
     26 H11         0.0021   -0.0041    0.0020 H         1 <0>         0.1284
     27 H12         2.1024    1.2278   -0.0118 H         1 <0>         0.1330
     28 H13        -1.0385    5.7907    0.0417 H         1 <0>         0.1286
     29 H14         1.0649    7.0197    0.0273 H         1 <0>         0.1273
     30 H15         3.2169    5.8329    0.0013 H         1 <0>         0.1292
     31 H16         3.3000    3.3985   -0.0122 H         1 <0>         0.1343
     32 N1         -7.3498    3.8031    0.0924 N.4       1 <0>        -0.5185
     33 H17        -7.3312    4.3918    0.9335 H         1 <0>         0.4366
     34 H18        -7.3471    4.3998   -0.7431 H         1 <0>         0.4366
@<TRIPOS>BOND
     1    1   16 1
     2    1   17 1
     3    1   18 1
     4    1   32 1
     5    2    3 1
     6    2   19 1
     7    2   20 1
     8    2   32 1
     9    3    4 1
    10    3   21 1
    11    3   22 1
    12    4    5 1
    13    4   23 1
    14    4   24 1
    15    5    6 1
    16    6   11 ar
    17    6    7 ar
    18    7    8 ar
    19    7   25 1
    20    8    9 ar
    21    8   26 1
    22    9   10 ar
    23    9   27 1
    24   10   15 ar
    25   10   11 ar
    26   11   12 ar
    27   12   13 ar
    28   12   28 1
    29   13   14 ar
    30   13   29 1
    31   14   15 ar
    32   14   30 1
    33   15   31 1
    34   32   33 1
    35   32   34 1
