@<TRIPOS>MOLECULE
ZINC19347183
   48    51     0     0     0
SMALL
USER_CHARGES
1-[2-(1-piperidyl)ethyl]-2-[(2S)-tetrahydrofuran-2-yl]pyrrolo[2,3-b]pyridine
@<TRIPOS>ATOM
      1 C1         -1.9105   -4.8017   -2.6798 C.ar      1 <0>        -0.1924
      2 C2         -1.6458   -5.1510   -1.3687 C.ar      1 <0>        -0.0183
      3 C3         -1.4866   -4.1245   -0.4353 C.ar      1 <0>        -0.1520
      4 C4         -1.2194   -4.0828    1.0035 C.2       1 <0>        -0.1339
      5 C5         -1.1732   -2.7878    1.3536 C.2       1 <0>         0.0623
      6 N1         -1.3891   -1.9995    0.2551 N.pl3     1 <0>        -0.4690
      7 C6         -1.5904   -2.7842   -0.8550 C.ar      1 <0>         0.2886
      8 N2         -1.8384   -2.5091   -2.1285 N.ar      1 <0>        -0.5071
      9 C7         -1.9959   -3.4614   -3.0232 C.ar      1 <0>         0.1469
     10 C8         -1.4090   -0.5347    0.2631 C.3       1 <0>         0.0902
     11 C9          0.0021   -0.0041    0.0020 C.3       1 <0>        -0.0279
     12 N3         -0.0178    1.4648    0.0101 N.4       1 <0>        -0.3933
     13 C10        -0.8065    1.9866   -1.1134 C.3       1 <0>        -0.0106
     14 C11        -0.9267    3.5073   -0.9912 C.3       1 <0>        -0.1456
     15 C12         0.4734    4.1270   -0.9947 C.3       1 <0>        -0.1414
     16 C13         1.2898    3.5311    0.1555 C.3       1 <0>        -0.1458
     17 C14         1.3458    2.0096    0.0000 C.3       1 <0>        -0.0036
     18 C15        -0.9214   -2.2773    2.7489 C.3       1 <0>         0.1381
     19 H1         -1.4571   -1.3217    2.8487 H         1 <0>         0.0754
     20 C16         0.5962   -2.1927    3.0249 C.3       1 <0>        -0.1424
     21 C17         0.7327   -2.6151    4.5049 C.3       1 <0>        -0.1566
     22 C18        -0.7185   -2.9049    4.9479 C.3       1 <0>         0.0433
     23 O1         -1.4224   -3.2157    3.7257 O.3       1 <0>        -0.3507
     24 H2         -2.0429   -5.5661   -3.4312 H         1 <0>         0.1452
     25 H3         -1.5756   -6.1873   -1.0728 H         1 <0>         0.1422
     26 H4         -1.0856   -4.9314    1.6579 H         1 <0>         0.1600
     27 H5         -2.1962   -3.1921   -4.0498 H         1 <0>         0.1667
     28 H6         -2.0881   -0.1729   -0.5230 H         1 <0>         0.1157
     29 H7         -1.7594   -0.1781    1.2429 H         1 <0>         0.1079
     30 H8          0.6812   -0.3660    0.7881 H         1 <0>         0.1340
     31 H9          0.3525   -0.3607   -0.9778 H         1 <0>         0.1356
     32 H10        -0.3074    1.7336   -2.0605 H         1 <0>         0.1293
     33 H11        -1.8104    1.5374   -1.0966 H         1 <0>         0.1309
     34 H12        -1.5050    3.8988   -1.8411 H         1 <0>         0.1138
     35 H13        -1.4392    3.7603   -0.0513 H         1 <0>         0.0888
     36 H14         0.9690    3.9077   -1.9519 H         1 <0>         0.0818
     37 H15         0.3926    5.2163   -0.8648 H         1 <0>         0.0956
     38 H16         2.3100    3.9417    0.1321 H         1 <0>         0.1136
     39 H17         0.8137    3.7863    1.1138 H         1 <0>         0.0891
     40 H18         1.9196    1.5772    0.8330 H         1 <0>         0.1303
     41 H19         1.8347    1.7565   -0.9523 H         1 <0>         0.1272
     42 H20         1.1305   -2.8760    2.3484 H         1 <0>         0.0865
     43 H21         0.9430   -1.1628    2.8547 H         1 <0>         0.0709
     44 H22         1.3726   -3.5072    4.5741 H         1 <0>         0.0849
     45 H23         1.1850   -1.7940    5.0804 H         1 <0>         0.0835
     46 H24        -0.7255   -3.7524    5.6491 H         1 <0>         0.1058
     47 H25        -1.1352   -2.0156    5.4434 H         1 <0>         0.0677
     48 H26        -0.5029    1.7929    0.9412 H         1 <0>         0.4389
@<TRIPOS>BOND
     1    1    9 ar
     2    1    2 ar
     3    1   24 1
     4    2    3 ar
     5    2   25 1
     6    3    7 ar
     7    3    4 1
     8    4    5 2
     9    4   26 1
    10    5    6 1
    11    5   18 1
    12    6    7 1
    13    6   10 1
    14    7    8 ar
    15    8    9 ar
    16    9   27 1
    17   10   11 1
    18   10   28 1
    19   10   29 1
    20   11   12 1
    21   11   30 1
    22   11   31 1
    23   12   17 1
    24   12   13 1
    25   12   48 1
    26   13   14 1
    27   13   32 1
    28   13   33 1
    29   14   15 1
    30   14   34 1
    31   14   35 1
    32   15   16 1
    33   15   36 1
    34   15   37 1
    35   16   17 1
    36   16   38 1
    37   16   39 1
    38   17   40 1
    39   17   41 1
    40   18   19 1
    41   18   23 1
    42   18   20 1
    43   20   21 1
    44   20   42 1
    45   20   43 1
    46   21   22 1
    47   21   44 1
    48   21   45 1
    49   22   23 1
    50   22   46 1
    51   22   47 1
