@<TRIPOS>MOLECULE
ZINC40555390
   34    36     0     0     0
SMALL
USER_CHARGES

@<TRIPOS>ATOM
      1 C1         -0.0178    1.4648    0.0101 C.3       1 <0>        -0.0562
      2 N1          0.0021   -0.0041    0.0020 N.4       1 <0>        -0.3827
      3 C2         -1.3761   -0.5125    0.0124 C.3       1 <0>        -0.0475
      4 C3          0.6897   -0.4778   -1.2066 C.3       1 <0>         0.0058
      5 C4          2.1588   -0.0534   -1.1571 C.3       1 <0>        -0.1706
      6 S1          3.0078   -0.6384   -2.6495 S.3       1 <0>         0.0875
      7 C5          4.6656   -0.0778   -2.4442 C.2       1 <0>         0.3560
      8 N2          4.9732    0.5902   -1.3615 N.2       1 <0>        -0.4699
      9 C6          6.2262    1.0527   -1.1343 C.ar      1 <0>         0.1258
     10 C7          6.5398    1.7643    0.0272 C.ar      1 <0>        -0.0849
     11 C8          7.8235    2.2187    0.2248 C.ar      1 <0>        -0.0711
     12 C9          8.8153    1.9796   -0.7174 C.ar      1 <0>        -0.0978
     13 C10         8.5317    1.2807   -1.8703 C.ar      1 <0>        -0.0524
     14 C11         7.2391    0.8111   -2.0907 C.ar      1 <0>        -0.0707
     15 C12         6.8780    0.0617   -3.2984 C.2       1 <0>         0.3013
     16 N3          5.5809   -0.3632   -3.4206 N.pl3     1 <0>        -0.3553
     17 N4          5.5354   -1.0435   -4.6444 N.2       1 <0>        -0.0573
     18 N5          6.7239   -0.9956   -5.1455 N.2       1 <0>         0.0112
     19 N6          7.5183   -0.3438   -4.3715 N.2       1 <0>        -0.2957
     20 H1          1.0047    1.8421    0.0024 H         1 <0>         0.1242
     21 H2         -0.5450    1.8259   -0.8730 H         1 <0>         0.1261
     22 H3         -0.5280    1.8163    0.9069 H         1 <0>         0.1293
     23 H4         -1.9033   -0.1515   -0.8706 H         1 <0>         0.1250
     24 H5         -1.3613   -1.6024    0.0065 H         1 <0>         0.1264
     25 H6         -1.8863   -0.1610    0.9092 H         1 <0>         0.1288
     26 H7          0.6270   -1.5648   -1.2578 H         1 <0>         0.1450
     27 H8          0.2158   -0.0447   -2.0875 H         1 <0>         0.1438
     28 H9          2.2214    1.0336   -1.1059 H         1 <0>         0.1240
     29 H10         2.6326   -0.4865   -0.2761 H         1 <0>         0.1243
     30 H11         5.7769    1.9571    0.7669 H         1 <0>         0.1468
     31 H12         8.0626    2.7682    1.1233 H         1 <0>         0.1483
     32 H13         9.8170    2.3447   -0.5452 H         1 <0>         0.1497
     33 H14         9.3073    1.0983   -2.5994 H         1 <0>         0.1532
     34 H15         0.4901   -0.3383    0.8195 H         1 <0>         0.4297
@<TRIPOS>BOND
     1    1    2 1
     2    1   20 1
     3    1   21 1
     4    1   22 1
     5    2    3 1
     6    2    4 1
     7    2   34 1
     8    3   23 1
     9    3   24 1
    10    3   25 1
    11    4    5 1
    12    4   26 1
    13    4   27 1
    14    5    6 1
    15    5   28 1
    16    5   29 1
    17    6    7 1
    18    7   16 1
    19    7    8 2
    20    8    9 1
    21    9   14 ar
    22    9   10 ar
    23   10   11 ar
    24   10   30 1
    25   11   12 ar
    26   11   31 1
    27   12   13 ar
    28   12   32 1
    29   13   14 ar
    30   13   33 1
    31   14   15 1
    32   15   19 2
    33   15   16 1
    34   16   17 1
    35   17   18 2
    36   18   19 1
