@<TRIPOS>MOLECULE
ZINC12138383
   42    44     0     0     0
SMALL
USER_CHARGES
4-(2-benzylphenoxy)piperidine
@<TRIPOS>ATOM
      1 C1         -4.9495    0.5677    5.2041 C.ar      1 <0>        -0.1211
      2 C2         -4.6031    1.3124    6.3160 C.ar      1 <0>        -0.1155
      3 C3         -3.9456    2.5187    6.1625 C.ar      1 <0>        -0.1133
      4 C4         -3.6349    2.9804    4.8971 C.ar      1 <0>        -0.0779
      5 C5         -3.9864    2.2383    3.7850 C.ar      1 <0>        -0.1108
      6 C6         -4.6392    1.0296    3.9387 C.ar      1 <0>        -0.1240
      7 C7         -2.9186    4.2956    4.7297 C.3       1 <0>        -0.0358
      8 C8         -1.4300    4.0611    4.7353 C.ar      1 <0>        -0.0967
      9 C9         -0.7138    4.1920    5.9096 C.ar      1 <0>        -0.0737
     10 C10         0.6526    3.9821    5.9142 C.ar      1 <0>        -0.1416
     11 C11         1.3054    3.6361    4.7453 C.ar      1 <0>        -0.0829
     12 C12         0.5932    3.4993    3.5697 C.ar      1 <0>        -0.2094
     13 C13        -0.7783    3.7090    3.5625 C.ar      1 <0>         0.1218
     14 O1         -1.4813    3.5750    2.4071 O.3       1 <0>        -0.2930
     15 C14        -0.7306    3.3350    1.2151 C.3       1 <0>         0.0740
     16 C15        -0.4574    1.8349    1.0758 C.3       1 <0>        -0.1793
     17 C16         0.2938    1.5774   -0.2325 C.3       1 <0>         0.0015
     18 C17        -0.7489    3.4999   -1.2762 C.3       1 <0>         0.0029
     19 C18        -1.5309    3.8148    0.0011 C.3       1 <0>        -0.1462
     20 H1         -5.4628   -0.3749    5.3241 H         1 <0>         0.1220
     21 H2         -4.8459    0.9517    7.3046 H         1 <0>         0.1241
     22 H3         -3.6750    3.1006    7.0311 H         1 <0>         0.1217
     23 H4         -3.7475    2.6012    2.7962 H         1 <0>         0.1190
     24 H5         -4.9101    0.4479    3.0700 H         1 <0>         0.1178
     25 H6         -3.1846    4.9613    5.5508 H         1 <0>         0.0844
     26 H7         -3.2111    4.7509    3.7835 H         1 <0>         0.0843
     27 H8         -1.2212    4.4624    6.8238 H         1 <0>         0.1337
     28 H9          1.2113    4.0888    6.8323 H         1 <0>         0.1299
     29 H10         2.3730    3.4730    4.7514 H         1 <0>         0.1277
     30 H11         1.1035    3.2291    2.6570 H         1 <0>         0.1232
     31 H12         0.2152    3.8746    1.2643 H         1 <0>         0.0897
     32 H13        -1.4026    1.2921    1.0656 H         1 <0>         0.1017
     33 H14         0.1485    1.4959    1.9161 H         1 <0>         0.1179
     34 H15         0.4774    0.5086   -0.3415 H         1 <0>         0.1384
     35 H16         1.2449    2.1095   -0.2159 H         1 <0>         0.1319
     36 H17         0.2073    4.0229   -1.2548 H         1 <0>         0.1331
     37 H18        -1.3226    3.8273   -2.1432 H         1 <0>         0.1414
     38 H19        -1.6920    4.8904    0.0733 H         1 <0>         0.1220
     39 H20        -2.4930    3.3031   -0.0259 H         1 <0>         0.1010
     40 N1         -0.5175    2.0460   -1.3722 N.4       1 <0>        -0.5185
     41 H21        -1.4212    1.5586   -1.3671 H         1 <0>         0.4349
     42 H22        -0.0221    1.8394   -2.2476 H         1 <0>         0.4395
@<TRIPOS>BOND
     1    1    6 ar
     2    1    2 ar
     3    1   20 1
     4    2    3 ar
     5    2   21 1
     6    3    4 ar
     7    3   22 1
     8    4    5 ar
     9    4    7 1
    10    5    6 ar
    11    5   23 1
    12    6   24 1
    13    7    8 1
    14    7   25 1
    15    7   26 1
    16    8   13 ar
    17    8    9 ar
    18    9   10 ar
    19    9   27 1
    20   10   11 ar
    21   10   28 1
    22   11   12 ar
    23   11   29 1
    24   12   13 ar
    25   12   30 1
    26   13   14 1
    27   14   15 1
    28   15   19 1
    29   15   16 1
    30   15   31 1
    31   16   17 1
    32   16   32 1
    33   16   33 1
    34   17   34 1
    35   17   35 1
    36   17   40 1
    37   18   19 1
    38   18   36 1
    39   18   37 1
    40   18   40 1
    41   19   38 1
    42   19   39 1
    43   40   41 1
    44   40   42 1
