@<TRIPOS>MOLECULE
ZINC25720386
   34    36     0     0     0
SMALL
USER_CHARGES
2-(4-thieno[3,2-e]pyrimidin-4-ylpiperazin-1-yl)ethanol
@<TRIPOS>ATOM
      1 C1          0.9196    4.5609    3.3281 C.2       1 <0>        -0.1095
      2 C2          1.4381    5.3191    4.3054 C.2       1 <0>        -0.1568
      3 S1          0.1220    5.4099    5.5048 S.3       1 <0>         0.1047
      4 C3         -1.0889    4.4271    4.6611 C.ar      1 <0>         0.1188
      5 C4         -0.4345    4.0542    3.4663 C.ar      1 <0>        -0.1682
      6 C5         -1.1963    3.2419    2.5822 C.ar      1 <0>         0.4020
      7 N1         -2.4299    2.9020    2.9197 N.ar      1 <0>        -0.5542
      8 C6         -2.9779    3.2841    4.0592 C.ar      1 <0>         0.3307
      9 N2         -2.3216    4.0381    4.9197 N.ar      1 <0>        -0.4840
     10 N3         -0.6567    2.8170    1.3815 N.pl3     1 <0>        -0.4884
     11 C7         -0.6382    1.3497    1.3023 C.3       1 <0>         0.0600
     12 C8          0.0363    0.9203   -0.0027 C.3       1 <0>         0.0528
     13 N4         -0.6921    1.4976   -1.1411 N.3       1 <0>        -0.5338
     14 C9         -0.7100    2.9650   -1.0616 C.3       1 <0>         0.0539
     15 C10        -1.3850    3.3943    0.2431 C.3       1 <0>         0.0622
     16 C11        -0.1190    1.0464   -2.4162 C.3       1 <0>         0.0533
     17 C12         1.1858    1.7994   -2.6838 C.3       1 <0>         0.0439
     18 O1          2.1603    1.4255   -1.7077 O.3       1 <0>        -0.5942
     19 H1          1.5024    4.3296    2.4488 H         1 <0>         0.1500
     20 H2          2.4192    5.7678    4.3543 H         1 <0>         0.1997
     21 H3         -3.9870    2.9759    4.2894 H         1 <0>         0.2091
     22 H4         -0.0774    0.9434    2.1570 H         1 <0>         0.0785
     23 H5         -1.6696    0.9682    1.3259 H         1 <0>         0.0615
     24 H6          1.0766    1.2777   -0.0126 H         1 <0>         0.0775
     25 H7          0.0249   -0.1771   -0.0775 H         1 <0>         0.0796
     26 H8          0.3216    3.3460   -1.0845 H         1 <0>         0.0522
     27 H9         -1.2701    3.3717   -1.9165 H         1 <0>         0.0834
     28 H10        -2.4252    3.0366    0.2539 H         1 <0>         0.0629
     29 H11        -1.3738    4.4916    0.3190 H         1 <0>         0.0794
     30 H12         0.0847   -0.0334   -2.3650 H         1 <0>         0.0832
     31 H13        -0.8316    1.2469   -3.2299 H         1 <0>         0.0930
     32 H14         1.5564    1.5455   -3.6879 H         1 <0>         0.0448
     33 H15         1.0031    2.8824   -2.6234 H         1 <0>         0.0479
     34 H16         3.1673    1.8670   -1.7388 H         1 <0>         0.4037
@<TRIPOS>BOND
     1    1    5 1
     2    1    2 2
     3    1   19 1
     4    2    3 1
     5    2   20 1
     6    3    4 1
     7    4    9 ar
     8    4    5 ar
     9    5    6 ar
    10    6    7 ar
    11    6   10 1
    12    7    8 ar
    13    8    9 ar
    14    8   21 1
    15   10   15 1
    16   10   11 1
    17   11   12 1
    18   11   22 1
    19   11   23 1
    20   12   13 1
    21   12   24 1
    22   12   25 1
    23   13   14 1
    24   13   16 1
    25   14   15 1
    26   14   26 1
    27   14   27 1
    28   15   28 1
    29   15   29 1
    30   16   17 1
    31   16   30 1
    32   16   31 1
    33   17   18 1
    34   17   32 1
    35   17   33 1
    36   18   34 1
