@<TRIPOS>MOLECULE
ZINC03305593
   44    46     0     0     0
SMALL
USER_CHARGES
2-[(5-cyclohexyl-1-phenyl-1,2,4-triazol-3-yl)sulfanyl]ethanamine
@<TRIPOS>ATOM
      1 C1          0.0021   -0.0041    0.0020 C.ar      1 <0>        -0.1061
      2 C2         -0.0167    1.3786    0.0096 C.ar      1 <0>        -0.0929
      3 C3          1.1690    2.0868    0.0021 C.ar      1 <0>        -0.1259
      4 C4          2.3808    1.4090   -0.0137 C.ar      1 <0>         0.1296
      5 C5          2.3963    0.0205   -0.0213 C.ar      1 <0>        -0.1040
      6 C6          1.2072   -0.6820   -0.0132 C.ar      1 <0>        -0.0994
      7 N1          3.5855    2.1246   -0.0214 N.pl3     1 <0>        -0.3152
      8 C7          3.8215    3.2993   -0.6360 C.2       1 <0>         0.3199
      9 N2          5.0646    3.6380   -0.4061 N.2       1 <0>        -0.5009
     10 C8          5.6550    2.7068    0.3505 C.2       1 <0>         0.1944
     11 N3          4.7833    1.7613    0.6155 N.2       1 <0>        -0.3201
     12 S1          7.3265    2.7457    0.9066 S.3       1 <0>         0.0928
     13 C9          7.5033    1.2203    1.8723 C.3       1 <0>        -0.1825
     14 C10         8.9283    1.1267    2.4215 C.3       1 <0>         0.0170
     15 C11         2.8264    4.0875   -1.4482 C.3       1 <0>        -0.0232
     16 C12         3.3474    4.2473   -2.8778 C.3       1 <0>        -0.1066
     17 C13         2.3371    5.0475   -3.7023 C.3       1 <0>        -0.1190
     18 C14         2.1444    6.4285   -3.0724 C.3       1 <0>        -0.1240
     19 C15         1.6234    6.2686   -1.6427 C.3       1 <0>        -0.1192
     20 C16         2.6337    5.4684   -0.8182 C.3       1 <0>        -0.1081
     21 H1         -0.9264   -0.5556    0.0083 H         1 <0>         0.1372
     22 H2         -0.9595    1.9053    0.0170 H         1 <0>         0.1415
     23 H3          1.1538    3.1667    0.0077 H         1 <0>         0.1381
     24 H4          3.3372   -0.5095   -0.0338 H         1 <0>         0.1297
     25 H5          1.2186   -1.7619   -0.0191 H         1 <0>         0.1372
     26 H6          6.7947    1.2303    2.7004 H         1 <0>         0.1156
     27 H7          7.3031    0.3604    1.2331 H         1 <0>         0.1150
     28 H8          9.6369    1.1167    1.5933 H         1 <0>         0.1451
     29 H9          9.1286    1.9866    3.0606 H         1 <0>         0.1479
     30 H10        10.0048   -0.1937    3.5773 H         1 <0>         0.4459
     31 H11         8.3820   -0.1530    3.9388 H         1 <0>         0.4394
     32 H12         1.8727    3.5599   -1.4658 H         1 <0>         0.1035
     33 H13         4.3011    4.7749   -2.8601 H         1 <0>         0.0796
     34 H14         3.4847    3.2635   -3.3266 H         1 <0>         0.0628
     35 H15         1.3834    4.5200   -3.7200 H         1 <0>         0.0652
     36 H16         2.7083    5.1614   -4.7208 H         1 <0>         0.0720
     37 H17         1.4247    6.9985   -3.6598 H         1 <0>         0.0687
     38 H18         3.0981    6.9560   -3.0547 H         1 <0>         0.0668
     39 H19         0.6698    5.7411   -1.6604 H         1 <0>         0.0653
     40 H20         1.4862    7.2524   -1.1939 H         1 <0>         0.0726
     41 H21         2.2626    5.3545    0.2003 H         1 <0>         0.0630
     42 H22         3.5874    5.9960   -0.8005 H         1 <0>         0.0812
     43 N4          9.0670   -0.1257    3.1854 N.4       1 <0>        -0.6417
     44 H23         8.9074   -0.9230    2.5584 H         1 <0>         0.4417
@<TRIPOS>BOND
     1    1    6 ar
     2    1    2 ar
     3    1   21 1
     4    2    3 ar
     5    2   22 1
     6    3    4 ar
     7    3   23 1
     8    4    5 ar
     9    4    7 1
    10    5    6 ar
    11    5   24 1
    12    6   25 1
    13    7   11 1
    14    7    8 1
    15    8    9 2
    16    8   15 1
    17    9   10 1
    18   10   11 2
    19   10   12 1
    20   12   13 1
    21   13   14 1
    22   13   26 1
    23   13   27 1
    24   14   28 1
    25   14   29 1
    26   14   43 1
    27   15   20 1
    28   15   16 1
    29   15   32 1
    30   16   17 1
    31   16   33 1
    32   16   34 1
    33   17   18 1
    34   17   35 1
    35   17   36 1
    36   18   19 1
    37   18   37 1
    38   18   38 1
    39   19   20 1
    40   19   39 1
    41   19   40 1
    42   20   41 1
    43   20   42 1
    44   30   43 1
    45   31   43 1
    46   43   44 1
