@<TRIPOS>MOLECULE
ZINC20738571
   46    49     0     0     0
SMALL
USER_CHARGES
1-methyl-6-(4-methylpiperazin-1-yl)-4-pyrrolidin-1-yl-pyrazolo[5,4-d]pyrimidine
@<TRIPOS>ATOM
      1 C1         -5.0437    1.8988   -0.2179 C.3       1 <0>         0.1017
      2 N1         -4.7812    0.4575   -0.2144 N.pl3     1 <0>        -0.3744
      3 C2         -3.5525   -0.1306   -0.1618 C.ar      1 <0>         0.3752
      4 C3         -3.7721   -1.5217   -0.1805 C.ar      1 <0>        -0.3005
      5 C4         -5.1686   -1.7188   -0.2456 C.2       1 <0>         0.1170
      6 N2         -5.7494   -0.5532   -0.2649 N.2       1 <0>        -0.2388
      7 C5         -2.6536   -2.3773   -0.1346 C.ar      1 <0>         0.4682
      8 N3         -1.4433   -1.8350   -0.0759 N.ar      1 <0>        -0.5895
      9 C6         -1.2816   -0.5171   -0.0603 C.ar      1 <0>         0.5510
     10 N4         -2.3019    0.3231   -0.0968 N.ar      1 <0>        -0.5866
     11 N5          0.0021   -0.0041    0.0020 N.pl3     1 <0>        -0.4592
     12 C7         -0.0179    1.4653    0.0101 C.3       1 <0>         0.0405
     13 C8          1.4190    1.9924   -0.0008 C.3       1 <0>        -0.0024
     14 N6          2.1378    1.4719    1.1705 N.4       1 <0>        -0.4056
     15 C9          2.1578    0.0025    1.1624 C.3       1 <0>         0.0011
     16 C10         0.7209   -0.5246    1.1733 C.3       1 <0>         0.0364
     17 C11         3.5006    2.0165    1.2367 C.3       1 <0>        -0.0451
     18 N7         -2.8127   -3.7489   -0.1508 N.pl3     1 <0>        -0.4582
     19 C12        -3.4512   -4.1958   -1.4153 C.3       1 <0>         0.0437
     20 C13        -3.0732   -5.6964   -1.4921 C.3       1 <0>        -0.1242
     21 C14        -1.6305   -5.7184   -0.9372 C.3       1 <0>        -0.1308
     22 C15        -1.5037   -4.4350   -0.0956 C.3       1 <0>         0.0355
     23 H1         -4.0902    2.4453   -0.1708 H         1 <0>         0.0970
     24 H2         -5.6602    2.1613    0.6544 H         1 <0>         0.0869
     25 H3         -5.5778    2.1720   -1.1399 H         1 <0>         0.0877
     26 H4         -5.6704   -2.6747   -0.2747 H         1 <0>         0.2030
     27 H5         -0.5500    1.8297   -0.8811 H         1 <0>         0.1345
     28 H6         -0.5328    1.8200    0.9151 H         1 <0>         0.0800
     29 H7          1.9244    1.6604   -0.9197 H         1 <0>         0.1373
     30 H8          1.4066    3.0918    0.0341 H         1 <0>         0.1437
     31 H9          2.6727   -0.3522    0.2574 H         1 <0>         0.1399
     32 H10         2.6899   -0.3619    2.0535 H         1 <0>         0.1444
     33 H11         0.2145   -0.1926    2.0916 H         1 <0>         0.0713
     34 H12         0.7323   -1.6240    1.1378 H         1 <0>         0.1415
     35 H13         4.0148    1.6114    2.1207 H         1 <0>         0.1258
     36 H14         3.4541    3.1131    1.3100 H         1 <0>         0.1259
     37 H15         4.0533    1.7328    0.3289 H         1 <0>         0.1210
     38 H16        -4.5381   -4.0381   -1.3529 H         1 <0>         0.0964
     39 H17        -3.0442   -3.6156   -2.2566 H         1 <0>         0.0606
     40 H18        -3.7722   -6.2825   -0.8774 H         1 <0>         0.0855
     41 H19        -3.1302   -6.0359   -2.5368 H         1 <0>         0.0859
     42 H20        -1.4872   -6.6204   -0.3241 H         1 <0>         0.0825
     43 H21        -0.9160   -5.7263   -1.7735 H         1 <0>         0.0760
     44 H22        -0.7263   -3.7753   -0.5084 H         1 <0>         0.0878
     45 H23        -1.2611   -4.6784    0.9493 H         1 <0>         0.0878
     46 H24         1.5999    1.7994    2.0724 H         1 <0>         0.4425
@<TRIPOS>BOND
     1    1    2 1
     2    1   23 1
     3    1   24 1
     4    1   25 1
     5    2    6 1
     6    2    3 1
     7    3   10 ar
     8    3    4 ar
     9    4    5 1
    10    4    7 ar
    11    5    6 2
    12    5   26 1
    13    7    8 ar
    14    7   18 1
    15    8    9 ar
    16    9   10 ar
    17    9   11 1
    18   11   16 1
    19   11   12 1
    20   12   13 1
    21   12   27 1
    22   12   28 1
    23   13   14 1
    24   13   29 1
    25   13   30 1
    26   14   15 1
    27   14   17 1
    28   14   46 1
    29   15   16 1
    30   15   31 1
    31   15   32 1
    32   16   33 1
    33   16   34 1
    34   17   35 1
    35   17   36 1
    36   17   37 1
    37   18   22 1
    38   18   19 1
    39   19   20 1
    40   19   38 1
    41   19   39 1
    42   20   21 1
    43   20   40 1
    44   20   41 1
    45   21   22 1
    46   21   42 1
    47   21   43 1
    48   22   44 1
    49   22   45 1
