@<TRIPOS>MOLECULE
ZINC19735292
   49    52     0     0     0
SMALL
USER_CHARGES
2-piperazin-1-yl-4,6-dipyrrolidin-1-yl-1,3,5-triazine
@<TRIPOS>ATOM
      1 C1         -2.2232    1.8500    0.7362 C.3       1 <0>        -0.1307
      2 C2         -0.7824    1.6071    1.2405 C.3       1 <0>        -0.1345
      3 C3         -0.0127    1.0858    0.0080 C.3       1 <0>         0.0449
      4 N1         -0.7759    1.6001   -1.1582 N.pl3     1 <0>        -0.4346
      5 C4         -2.1986    1.4551   -0.7560 C.3       1 <0>         0.0227
      6 C5         -0.5046    0.8609   -2.2917 C.ar      1 <0>         0.6341
      7 N2         -1.0984    1.1651   -3.4415 N.ar      1 <0>        -0.5955
      8 C6         -0.8329    0.4565   -4.5345 C.ar      1 <0>         0.6370
      9 N3          0.0181   -0.5630   -4.4753 N.ar      1 <0>        -0.5942
     10 C7          0.6078   -0.8706   -3.3243 C.ar      1 <0>         0.6215
     11 N4          0.3464   -0.1586   -2.2325 N.ar      1 <0>        -0.5656
     12 N5          1.4916   -1.9288   -3.2629 N.pl3     1 <0>        -0.4491
     13 C8          1.0775   -2.9024   -2.2430 C.3       1 <0>         0.0293
     14 C9          2.1227   -4.0167   -2.1511 C.3       1 <0>         0.0020
     15 N6          2.2641   -4.6616   -3.4640 N.4       1 <0>        -0.5437
     16 C10         2.6782   -3.6879   -4.4839 C.3       1 <0>        -0.0022
     17 C11         1.6331   -2.5737   -4.5758 C.3       1 <0>         0.0256
     18 N7         -1.4451    0.7758   -5.7295 N.pl3     1 <0>        -0.4500
     19 C12        -1.0601    2.1387   -6.1773 C.3       1 <0>         0.0313
     20 C13        -1.3754    2.1158   -7.6941 C.3       1 <0>        -0.1231
     21 C14        -0.9727    0.6821   -8.1092 C.3       1 <0>        -0.1351
     22 C15        -1.0132   -0.1399   -6.8076 C.3       1 <0>         0.0406
     23 H1         -2.5130    2.9069    0.8310 H         1 <0>         0.0946
     24 H2         -2.9508    1.2210    1.2700 H         1 <0>         0.0967
     25 H3         -0.3605    2.5519    1.6139 H         1 <0>         0.0935
     26 H4         -0.7984    0.8661    2.0533 H         1 <0>         0.0965
     27 H5          1.0161    1.4747    0.0267 H         1 <0>         0.1135
     28 H6          0.0106   -0.0138    0.0283 H         1 <0>         0.0935
     29 H7         -2.5519    0.4193   -0.8670 H         1 <0>         0.0812
     30 H8         -2.8556    2.1296   -1.3247 H         1 <0>         0.1136
     31 H9          0.9906   -2.3986   -1.2690 H         1 <0>         0.1476
     32 H10         0.1043   -3.3332   -2.5210 H         1 <0>         0.0883
     33 H11         3.0889   -3.5888   -1.8457 H         1 <0>         0.1479
     34 H12         1.8004   -4.7614   -1.4085 H         1 <0>         0.1577
     35 H13         3.0238   -5.4548   -3.4030 H         1 <0>         0.4710
     36 H14         3.6514   -3.2571   -4.2058 H         1 <0>         0.1447
     37 H15         2.7651   -4.1916   -5.4579 H         1 <0>         0.1572
     38 H16         0.6663   -3.0007   -4.8806 H         1 <0>         0.0959
     39 H17         1.9549   -1.8281   -5.3178 H         1 <0>         0.1415
     40 H18        -1.6580    2.8856   -5.6344 H         1 <0>         0.1098
     41 H19         0.0078    2.3042   -5.9718 H         1 <0>         0.0793
     42 H20        -2.4457    2.3167   -7.8492 H         1 <0>         0.0968
     43 H21        -0.7799    2.8873   -8.2041 H         1 <0>         0.1037
     44 H22        -1.6892    0.3004   -8.8514 H         1 <0>         0.0988
     45 H23         0.0362    0.6969   -8.5473 H         1 <0>         0.0905
     46 H24        -0.0167   -0.5411   -6.5706 H         1 <0>         0.0988
     47 H25        -1.7311   -0.9688   -6.8941 H         1 <0>         0.1088
     48 H26        -1.8094    2.0031   -3.4885 H         1 <0>         0.4947
     49 H27         1.3003   -5.0992   -3.7633 H         1 <0>         0.4529
@<TRIPOS>BOND
     1    1    5 1
     2    1    2 1
     3    1   23 1
     4    1   24 1
     5    2    3 1
     6    2   25 1
     7    2   26 1
     8    3    4 1
     9    3   27 1
    10    3   28 1
    11    4    5 1
    12    4    6 1
    13    5   29 1
    14    5   30 1
    15    6   11 ar
    16    6    7 ar
    17    7    8 ar
    18    7   48 1
    19    8    9 ar
    20    8   18 1
    21    9   10 ar
    22   10   11 ar
    23   10   12 1
    24   12   17 1
    25   12   13 1
    26   13   14 1
    27   13   31 1
    28   13   32 1
    29   14   15 1
    30   14   33 1
    31   14   34 1
    32   15   16 1
    33   15   35 1
    34   15   49 1
    35   16   17 1
    36   16   36 1
    37   16   37 1
    38   17   38 1
    39   17   39 1
    40   18   22 1
    41   18   19 1
    42   19   20 1
    43   19   40 1
    44   19   41 1
    45   20   21 1
    46   20   42 1
    47   20   43 1
    48   21   22 1
    49   21   44 1
    50   21   45 1
    51   22   46 1
    52   22   47 1
