@<TRIPOS>MOLECULE
ZINC00547057
   34    37     0     0     0
SMALL
USER_CHARGES
phenylBLAHamine
@<TRIPOS>ATOM
      1 C1          2.3960    0.0285   -0.0212 C.ar      1 <0>        -0.0835
      2 C2          1.2084   -0.6789   -0.0132 C.ar      1 <0>        -0.1075
      3 C3          0.0021   -0.0041    0.0020 C.ar      1 <0>        -0.0797
      4 C4         -0.0167    1.3781    0.0096 C.ar      1 <0>        -0.1588
      5 C5          1.1709    2.0855    0.0021 C.ar      1 <0>        -0.0907
      6 C6          2.3773    1.4107   -0.0150 C.ar      1 <0>        -0.1122
      7 C7         -1.3319    2.1138    0.0199 C.3       1 <0>         0.4201
      8 H1         -2.1183    1.4443    0.3682 H         1 <0>         0.1457
      9 C8         -1.1792    4.4920    0.5393 C.cat     1 <0>         0.7398
     10 N1         -1.2108    4.8682   -0.7906 N.pl3     1 <0>        -0.5767
     11 C9         -1.5756    3.8927   -1.7088 C.2       1 <0>         0.4463
     12 N2         -1.6451    2.5674   -1.3351 N.pl3     1 <0>        -0.5105
     13 C10        -2.0360    1.8600   -2.4343 C.ar      1 <0>         0.0942
     14 C11        -2.2735    0.5085   -2.6545 C.ar      1 <0>        -0.1149
     15 C12        -2.6682    0.1360   -3.9293 C.ar      1 <0>        -0.0724
     16 C13        -2.8220    1.0590   -4.9493 C.ar      1 <0>        -0.1188
     17 C14        -2.5916    2.4092   -4.7565 C.ar      1 <0>        -0.0409
     18 C15        -2.1928    2.8089   -3.4764 C.ar      1 <0>         0.0532
     19 N3         -1.8956    4.0212   -2.9653 N.2       1 <0>        -0.4343
     20 N4         -1.0796    5.4726    1.4979 N.pl3     1 <0>        -0.7939
     21 H2          3.3385   -0.4987   -0.0327 H         1 <0>         0.1372
     22 H3          1.2231   -1.7588   -0.0184 H         1 <0>         0.1397
     23 H4         -0.9258   -0.5567    0.0083 H         1 <0>         0.1335
     24 H5          1.1563    3.1654    0.0077 H         1 <0>         0.1085
     25 H6          3.3051    1.9634   -0.0216 H         1 <0>         0.1337
     26 H7         -0.9891    5.7705   -1.0690 H         1 <0>         0.4712
     27 H8         -2.1565   -0.2199   -1.8657 H         1 <0>         0.1371
     28 H9         -2.8613   -0.9068   -4.1336 H         1 <0>         0.1407
     29 H10        -3.1316    0.7147   -5.9250 H         1 <0>         0.1414
     30 H11        -2.7144    3.1227   -5.5579 H         1 <0>         0.1510
     31 H12        -1.0331    6.4050    1.2348 H         1 <0>         0.4417
     32 H13        -1.0557    5.2319    2.4372 H         1 <0>         0.4445
     33 N5         -1.2372    3.2439    1.0226 N.pl3     1 <0>        -0.6661
     34 H14        -1.2182    3.0611    2.0328 H         1 <0>         0.4815
@<TRIPOS>BOND
     1    1    6 ar
     2    1    2 ar
     3    1   21 1
     4    2    3 ar
     5    2   22 1
     6    3    4 ar
     7    3   23 1
     8    4    5 ar
     9    4    7 1
    10    5    6 ar
    11    5   24 1
    12    6   25 1
    13    7    8 1
    14    7   12 1
    15    7   33 1
    16    9   10 1
    17    9   20 1
    18    9   33 2
    19   10   11 1
    20   10   26 1
    21   11   19 2
    22   11   12 1
    23   12   13 1
    24   13   18 ar
    25   13   14 ar
    26   14   15 ar
    27   14   27 1
    28   15   16 ar
    29   15   28 1
    30   16   17 ar
    31   16   29 1
    32   17   18 ar
    33   17   30 1
    34   18   19 1
    35   20   31 1
    36   20   32 1
    37   33   34 1
