@<TRIPOS>MOLECULE
ZINC05027703
   40    43     0     0     0
SMALL
USER_CHARGES
3-[2-(1-piperidyl)ethyl]-[1,2,4]triazolo[1,5-a]benzimidazole
@<TRIPOS>ATOM
      1 C1         -2.4093    1.3612    0.0316 C.ar      1 <0>        -0.1015
      2 C2         -2.3907   -0.0265    0.0240 C.ar      1 <0>        -0.1014
      3 C3         -1.1930   -0.7097    0.0092 C.ar      1 <0>        -0.0906
      4 C4          0.0021   -0.0041    0.0020 C.ar      1 <0>         0.0747
      5 C5         -0.0170    1.4024    0.0098 C.ar      1 <0>         0.0921
      6 C6         -1.2436    2.0734    0.0302 C.ar      1 <0>        -0.0753
      7 N1          1.2735    1.8188   -0.0003 N.2       1 <0>        -0.4858
      8 C7          2.0748    0.7742   -0.0136 C.2       1 <0>         0.4121
      9 N2          1.3343   -0.3714   -0.0127 N.pl3     1 <0>        -0.3518
     10 N3          2.2296   -1.4469   -0.0270 N.2       1 <0>        -0.2549
     11 C8          3.4367   -0.9807   -0.0360 C.2       1 <0>         0.2813
     12 N4          3.3939    0.3892   -0.0283 N.pl3     1 <0>        -0.5073
     13 C9          4.5521    1.2863   -0.0349 C.3       1 <0>         0.1121
     14 C10         4.8921    1.6908    1.4009 C.3       1 <0>        -0.0285
     15 C11         7.2578    1.8915    0.9280 C.3       1 <0>        -0.0091
     16 C12         8.4097    2.8903    0.7954 C.3       1 <0>        -0.1472
     17 C13         8.6707    3.5444    2.1550 C.3       1 <0>        -0.1399
     18 C14         7.3872    4.2240    2.6404 C.3       1 <0>        -0.1476
     19 C15         6.2650    3.1865    2.7195 C.3       1 <0>        -0.0005
     20 H1         -3.3547    1.8832    0.0431 H         1 <0>         0.1403
     21 H2         -3.3209   -0.5751    0.0299 H         1 <0>         0.1403
     22 H3         -1.1850   -1.7897    0.0030 H         1 <0>         0.1311
     23 H4         -1.2695    3.1531    0.0362 H         1 <0>         0.1389
     24 H5          4.3368   -1.5774   -0.0475 H         1 <0>         0.2525
     25 H6          5.4054    0.7747   -0.4801 H         1 <0>         0.1231
     26 H7          4.3182    2.1773   -0.6177 H         1 <0>         0.1188
     27 H8          4.0388    2.2025    1.8460 H         1 <0>         0.1389
     28 H9          5.1260    0.7999    1.9837 H         1 <0>         0.1391
     29 H10         7.5292    1.1173    1.6457 H         1 <0>         0.1335
     30 H11         7.0601    1.4344   -0.0416 H         1 <0>         0.1279
     31 H12         8.1445    3.6571    0.0675 H         1 <0>         0.0892
     32 H13         9.3078    2.3691    0.4640 H         1 <0>         0.1138
     33 H14         9.4614    4.2880    2.0557 H         1 <0>         0.0954
     34 H15         8.9743    2.7836    2.8741 H         1 <0>         0.0822
     35 H16         7.1059    5.0118    1.9415 H         1 <0>         0.0892
     36 H17         7.5546    4.6550    3.6274 H         1 <0>         0.1138
     37 H18         5.3461    3.6700    3.0511 H         1 <0>         0.1301
     38 H19         6.5412    2.4063    3.4288 H         1 <0>         0.1314
     39 N5          6.0467    2.6123    1.3749 N.4       1 <0>        -0.3903
     40 H20         5.8503    3.3743    0.7153 H         1 <0>         0.4299
@<TRIPOS>BOND
     1    1    6 ar
     2    1    2 ar
     3    1   20 1
     4    2    3 ar
     5    2   21 1
     6    3    4 ar
     7    3   22 1
     8    4    9 1
     9    4    5 ar
    10    5    6 ar
    11    5    7 1
    12    6   23 1
    13    7    8 2
    14    8   12 1
    15    8    9 1
    16    9   10 1
    17   10   11 2
    18   11   12 1
    19   11   24 1
    20   12   13 1
    21   13   14 1
    22   13   25 1
    23   13   26 1
    24   14   27 1
    25   14   28 1
    26   14   39 1
    27   15   16 1
    28   15   29 1
    29   15   30 1
    30   15   39 1
    31   16   17 1
    32   16   31 1
    33   16   32 1
    34   17   18 1
    35   17   33 1
    36   17   34 1
    37   18   19 1
    38   18   35 1
    39   18   36 1
    40   19   37 1
    41   19   38 1
    42   19   39 1
    43   39   40 1
