@<TRIPOS>MOLECULE
ZINC02574346
   32    33     0     0     0
SMALL
USER_CHARGES
2-(2-phenoxyphenyl)ethanamine
@<TRIPOS>ATOM
      1 C1         -0.5897    6.3992    3.1531 C.ar      1 <0>        -0.1438
      2 C2          0.4224    6.3993    2.2109 C.ar      1 <0>        -0.0805
      3 C3          1.1222    5.2379    1.9471 C.ar      1 <0>        -0.1491
      4 C4          0.8084    4.0704    2.6282 C.ar      1 <0>         0.1073
      5 C5         -0.2118    4.0716    3.5687 C.ar      1 <0>        -0.1937
      6 C6         -0.9044    5.2372    3.8332 C.ar      1 <0>        -0.0791
      7 O1          1.4953    2.9266    2.3706 O.3       1 <0>        -0.2630
      8 C7          1.0754    1.7816    2.9698 C.ar      1 <0>         0.0927
      9 C8          1.6961    1.3350    4.1279 C.ar      1 <0>        -0.1180
     10 C9          1.2707    0.1681    4.7320 C.ar      1 <0>        -0.0888
     11 C10         0.2244   -0.5529    4.1862 C.ar      1 <0>        -0.1097
     12 C11        -0.3988   -0.1077    3.0352 C.ar      1 <0>        -0.0959
     13 C12         0.0225    1.0592    2.4272 C.ar      1 <0>        -0.1180
     14 C13        -0.6569    1.5436    1.1723 C.3       1 <0>        -0.1047
     15 C14         0.1228    1.0560   -0.0505 C.3       1 <0>        -0.0001
     16 H1         -1.1356    7.3083    3.3578 H         1 <0>         0.1303
     17 H2          0.6662    7.3083    1.6811 H         1 <0>         0.1352
     18 H3          1.9126    5.2385    1.2112 H         1 <0>         0.1321
     19 H4         -0.4611    3.1631    4.0968 H         1 <0>         0.1274
     20 H5         -1.6953    5.2398    4.5686 H         1 <0>         0.1297
     21 H6          2.5135    1.8976    4.5544 H         1 <0>         0.1388
     22 H7          1.7559   -0.1818    5.6312 H         1 <0>         0.1396
     23 H8         -0.1062   -1.4655    4.6597 H         1 <0>         0.1372
     24 H9         -1.2154   -0.6728    2.6108 H         1 <0>         0.1339
     25 H10        -0.6874    2.6332    1.1731 H         1 <0>         0.0951
     26 H11        -1.6734    1.1517    1.1351 H         1 <0>         0.0994
     27 H12         0.1532   -0.0335   -0.0512 H         1 <0>         0.1376
     28 H13         1.1392    1.4479   -0.0132 H         1 <0>         0.1360
     29 H14        -0.0433    1.2190   -2.0960 H         1 <0>         0.4417
     30 H15        -1.5036    1.2317   -1.3004 H         1 <0>         0.4367
     31 N1         -0.5375    1.5532   -1.2704 N.4       1 <0>        -0.6463
     32 H16        -0.5261    2.5799   -1.2658 H         1 <0>         0.4400
@<TRIPOS>BOND
     1    1    6 ar
     2    1    2 ar
     3    1   16 1
     4    2    3 ar
     5    2   17 1
     6    3    4 ar
     7    3   18 1
     8    4    5 ar
     9    4    7 1
    10    5    6 ar
    11    5   19 1
    12    6   20 1
    13    7    8 1
    14    8   13 ar
    15    8    9 ar
    16    9   10 ar
    17    9   21 1
    18   10   11 ar
    19   10   22 1
    20   11   12 ar
    21   11   23 1
    22   12   13 ar
    23   12   24 1
    24   13   14 1
    25   14   15 1
    26   14   25 1
    27   14   26 1
    28   15   27 1
    29   15   28 1
    30   15   31 1
    31   29   31 1
    32   30   31 1
    33   31   32 1
