@<TRIPOS>MOLECULE
ZINC09421983
   41    43     0     0     0
SMALL
USER_CHARGES
2-(1-benzyl-7-methyl-indol-3-yl)ethanamine
@<TRIPOS>ATOM
      1 C1          3.6014   -0.8810   -0.6019 C.3       1 <0>        -0.1242
      2 C2          2.3374   -0.0753   -0.4460 C.ar      1 <0>        -0.0823
      3 C3          1.1188   -0.7118   -0.3538 C.ar      1 <0>        -0.1005
      4 C4         -0.0524    0.0188   -0.2106 C.ar      1 <0>        -0.1273
      5 C5         -0.0170    1.3840   -0.1589 C.ar      1 <0>        -0.0918
      6 C6          1.2066    2.0494   -0.2504 C.ar      1 <0>        -0.0932
      7 C7          2.3969    1.3133   -0.3953 C.ar      1 <0>         0.0967
      8 N1          3.4306    2.2208   -0.4578 N.pl3     1 <0>        -0.4676
      9 C8          2.9385    3.4939   -0.3604 C.2       1 <0>         0.0952
     10 C9          1.6027    3.4597   -0.2323 C.2       1 <0>        -0.2140
     11 C10         0.6846    4.6469   -0.0952 C.3       1 <0>        -0.0591
     12 C11         0.4140    4.9140    1.3868 C.3       1 <0>        -0.0038
     13 C12         4.8462    1.8750   -0.6085 C.3       1 <0>         0.1482
     14 C13         5.6560    3.1349   -0.7759 C.ar      1 <0>        -0.1219
     15 C14         5.8367    3.6782   -2.0341 C.ar      1 <0>        -0.0964
     16 C15         6.5755    4.8366   -2.1871 C.ar      1 <0>        -0.1177
     17 C16         7.1423    5.4457   -1.0832 C.ar      1 <0>        -0.1029
     18 C17         6.9660    4.8994    0.1743 C.ar      1 <0>        -0.1197
     19 C18         6.2228    3.7440    0.3280 C.ar      1 <0>        -0.1000
     20 H1          3.8622   -0.9471   -1.6581 H         1 <0>         0.0725
     21 H2          4.4112   -0.3955   -0.0573 H         1 <0>         0.0638
     22 H3          3.4449   -1.8832   -0.2028 H         1 <0>         0.0754
     23 H4          1.0747   -1.7902   -0.3931 H         1 <0>         0.1297
     24 H5         -0.9994   -0.4956   -0.1397 H         1 <0>         0.1261
     25 H6         -0.9330    1.9462   -0.0521 H         1 <0>         0.1167
     26 H7          3.5363    4.3930   -0.3825 H         1 <0>         0.1657
     27 H8          1.1543    5.5229   -0.5424 H         1 <0>         0.0893
     28 H9         -0.2563    4.4393   -0.6047 H         1 <0>         0.0910
     29 H10        -0.0557    4.0379    1.8340 H         1 <0>         0.1317
     30 H11         1.3550    5.1216    1.8963 H         1 <0>         0.1327
     31 H12        -0.6750    6.2681    2.4907 H         1 <0>         0.4391
     32 H13        -0.0965    6.8809    1.0569 H         1 <0>         0.4359
     33 H14         5.1859    1.3399    0.2783 H         1 <0>         0.0922
     34 H15         4.9740    1.2416   -1.4862 H         1 <0>         0.0950
     35 H16         5.3976    3.1999   -2.8971 H         1 <0>         0.1244
     36 H17         6.7136    5.2632   -3.1696 H         1 <0>         0.1292
     37 H18         7.7232    6.3482   -1.2033 H         1 <0>         0.1287
     38 H19         7.4091    5.3751    1.0367 H         1 <0>         0.1284
     39 H20         6.0854    3.3170    1.3104 H         1 <0>         0.1240
     40 N2         -0.5013    6.0623    1.5083 N.4       1 <0>        -0.6479
     41 H21        -1.3919    5.8338    1.0513 H         1 <0>         0.4389
@<TRIPOS>BOND
     1    1    2 1
     2    1   20 1
     3    1   21 1
     4    1   22 1
     5    2    7 ar
     6    2    3 ar
     7    3    4 ar
     8    3   23 1
     9    4    5 ar
    10    4   24 1
    11    5    6 ar
    12    5   25 1
    13    6   10 1
    14    6    7 ar
    15    7    8 1
    16    8    9 1
    17    8   13 1
    18    9   10 2
    19    9   26 1
    20   10   11 1
    21   11   12 1
    22   11   27 1
    23   11   28 1
    24   12   29 1
    25   12   30 1
    26   12   40 1
    27   13   14 1
    28   13   33 1
    29   13   34 1
    30   14   19 ar
    31   14   15 ar
    32   15   16 ar
    33   15   35 1
    34   16   17 ar
    35   16   36 1
    36   17   18 ar
    37   17   37 1
    38   18   19 ar
    39   18   38 1
    40   19   39 1
    41   31   40 1
    42   32   40 1
    43   40   41 1
