@<TRIPOS>MOLECULE
ZINC08714282
   42    44     0     0     0
SMALL
USER_CHARGES

@<TRIPOS>ATOM
      1 C1         -0.0178    1.4648    0.0101 C.3       1 <0>        -0.0479
      2 N1          0.0021   -0.0041    0.0020 N.4       1 <0>        -0.5044
      3 C2          0.6897   -0.4778   -1.2066 C.3       1 <0>        -0.0449
      4 C3          0.7104   -2.0077   -1.2150 C.3       1 <0>         0.0619
      5 H1         -0.3122   -2.3849   -1.2073 H         1 <0>         0.1285
      6 C4          1.4265   -2.5011   -2.4738 C.3       1 <0>         0.0861
      7 N2          1.3424   -3.9620   -2.5426 N.pl3     1 <0>        -0.4784
      8 C5          2.2577   -4.8337   -1.9938 C.ar      1 <0>         0.1069
      9 C6          3.4330   -4.6561   -1.2715 C.ar      1 <0>        -0.1306
     10 C7          4.1496   -5.7537   -0.8481 C.ar      1 <0>        -0.0929
     11 C8          3.7105   -7.0390   -1.1353 C.ar      1 <0>        -0.1421
     12 C9          2.5592   -7.2371   -1.8432 C.ar      1 <0>        -0.0658
     13 C10         1.8154   -6.1393   -2.2818 C.ar      1 <0>        -0.0990
     14 C11         0.5758   -5.9828   -3.0358 C.2       1 <0>        -0.1453
     15 C12         0.3417   -4.6620   -3.1553 C.2       1 <0>         0.0604
     16 C13        -0.8575   -4.0853   -3.8723 C.3       1 <0>        -0.0507
     17 C14        -1.4734   -5.1805   -4.7500 C.3       1 <0>        -0.1176
     18 C15        -1.6822   -6.4476   -3.9159 C.3       1 <0>        -0.1204
     19 C16        -0.3140   -7.0654   -3.5901 C.3       1 <0>        -0.0522
     20 O1          1.4016   -2.4810   -0.0573 O.3       1 <0>        -0.5409
     21 H2          1.0047    1.8421    0.0024 H         1 <0>         0.1241
     22 H3         -0.5450    1.8259   -0.8730 H         1 <0>         0.1246
     23 H4         -0.5280    1.8163    0.9069 H         1 <0>         0.1293
     24 H5          0.4901   -0.3383    0.8195 H         1 <0>         0.4351
     25 H6          0.1625   -0.1167   -2.0897 H         1 <0>         0.1453
     26 H7          1.7123   -0.1005   -1.2143 H         1 <0>         0.1386
     27 H8          0.9527   -2.0680   -3.3547 H         1 <0>         0.1057
     28 H9          2.4732   -2.1987   -2.4385 H         1 <0>         0.0997
     29 H10         3.7831   -3.6602   -1.0434 H         1 <0>         0.1100
     30 H11         5.0620   -5.6130   -0.2877 H         1 <0>         0.1267
     31 H12         4.2840   -7.8892   -0.7967 H         1 <0>         0.1260
     32 H13         2.2248   -8.2402   -2.0631 H         1 <0>         0.1241
     33 H14        -1.5919   -3.7451   -3.1422 H         1 <0>         0.0749
     34 H15        -0.5434   -3.2491   -4.4969 H         1 <0>         0.0726
     35 H16        -2.4331   -4.8385   -5.1374 H         1 <0>         0.0745
     36 H17        -0.8034   -5.3993   -5.5814 H         1 <0>         0.0713
     37 H18        -2.2021   -6.1936   -2.9921 H         1 <0>         0.0646
     38 H19        -2.2769   -7.1631   -4.4837 H         1 <0>         0.0731
     39 H20         0.1346   -7.4826   -4.4916 H         1 <0>         0.0760
     40 H21        -0.4438   -7.8502   -2.8449 H         1 <0>         0.0742
     41 H22         2.3198   -2.1835    0.0016 H         1 <0>         0.3870
     42 H23        -0.9445   -0.3533    0.0092 H         1 <0>         0.4321
@<TRIPOS>BOND
     1    1    2 1
     2    1   21 1
     3    1   22 1
     4    1   23 1
     5    2    3 1
     6    2   24 1
     7    2   42 1
     8    3    4 1
     9    3   25 1
    10    3   26 1
    11    4    5 1
    12    4    6 1
    13    4   20 1
    14    6    7 1
    15    6   27 1
    16    6   28 1
    17    7   15 1
    18    7    8 1
    19    8   13 ar
    20    8    9 ar
    21    9   10 ar
    22    9   29 1
    23   10   11 ar
    24   10   30 1
    25   11   12 ar
    26   11   31 1
    27   12   13 ar
    28   12   32 1
    29   13   14 1
    30   14   19 1
    31   14   15 2
    32   15   16 1
    33   16   17 1
    34   16   33 1
    35   16   34 1
    36   17   18 1
    37   17   35 1
    38   17   36 1
    39   18   19 1
    40   18   37 1
    41   18   38 1
    42   19   39 1
    43   19   40 1
    44   20   41 1
