@<TRIPOS>MOLECULE
ZINC10436232
   34    35     0     0     0
SMALL
USER_CHARGES
N-[(5-phenyl-2-furyl)methyl]propan-2-amine
@<TRIPOS>ATOM
      1 C1         -4.0949    2.4325    1.3476 C.3       1 <0>        -0.1844
      2 C2         -2.8515    3.3172    1.4584 C.3       1 <0>         0.0265
      3 C3         -2.8859    4.0817    2.7832 C.3       1 <0>        -0.1856
      4 C4         -1.2524    2.2050    0.0202 C.3       1 <0>         0.0988
      5 C5         -0.0162    1.3431    0.0094 C.2       1 <0>        -0.1208
      6 C6          0.0021   -0.0041    0.0020 C.2       1 <0>        -0.1280
      7 C7          1.3550   -0.3985   -0.0130 C.2       1 <0>        -0.2084
      8 C8          2.0953    0.7418   -0.0140 C.2       1 <0>         0.0989
      9 O1          1.2501    1.7904   -0.0003 O.3       1 <0>        -0.1631
     10 C9          3.5712    0.8176   -0.0272 C.ar      1 <0>        -0.0514
     11 C10         4.3331   -0.3520   -0.0345 C.ar      1 <0>        -0.0845
     12 C11         5.7104   -0.2742   -0.0532 C.ar      1 <0>        -0.1146
     13 C12         6.3367    0.9596   -0.0521 C.ar      1 <0>        -0.0933
     14 C13         5.5875    2.1227   -0.0391 C.ar      1 <0>        -0.1175
     15 C14         4.2094    2.0590   -0.0267 C.ar      1 <0>        -0.0929
     16 H1         -4.9886    3.0555    1.3845 H         1 <0>         0.1075
     17 H2         -4.0704    1.8879    0.4038 H         1 <0>         0.0807
     18 H3         -4.1116    1.7239    2.1757 H         1 <0>         0.0828
     19 H4         -2.8349    4.0258    0.6303 H         1 <0>         0.1402
     20 H5         -2.0001    4.7120    2.8621 H         1 <0>         0.0821
     21 H6         -3.7796    4.7047    2.8201 H         1 <0>         0.1080
     22 H7         -2.9026    3.3731    3.6113 H         1 <0>         0.0822
     23 H8         -1.0439    3.1457   -0.4896 H         1 <0>         0.1448
     24 H9         -2.0619    1.6856   -0.4925 H         1 <0>         0.1560
     25 H10        -0.8574   -0.6580    0.0064 H         1 <0>         0.1639
     26 H11         1.7310   -1.4109   -0.0217 H         1 <0>         0.1647
     27 H12         3.8455   -1.3157   -0.0301 H         1 <0>         0.1319
     28 H13         6.3011   -1.1783   -0.0637 H         1 <0>         0.1368
     29 H14         7.4152    1.0149   -0.0618 H         1 <0>         0.1338
     30 H15         6.0825    3.0825   -0.0384 H         1 <0>         0.1336
     31 H16         3.6257    2.9677   -0.0169 H         1 <0>         0.1275
     32 N1         -1.6420    2.4739    1.4173 N.4       1 <0>        -0.5215
     33 H17        -1.8331    1.5843    1.8929 H         1 <0>         0.4318
     34 H18        -0.8741    2.9596    1.8956 H         1 <0>         0.4335
@<TRIPOS>BOND
     1    1    2 1
     2    1   16 1
     3    1   17 1
     4    1   18 1
     5    2    3 1
     6    2   19 1
     7    2   32 1
     8    3   20 1
     9    3   21 1
    10    3   22 1
    11    4    5 1
    12    4   23 1
    13    4   24 1
    14    4   32 1
    15    5    9 1
    16    5    6 2
    17    6    7 1
    18    6   25 1
    19    7    8 2
    20    7   26 1
    21    8    9 1
    22    8   10 1
    23   10   15 ar
    24   10   11 ar
    25   11   12 ar
    26   11   27 1
    27   12   13 ar
    28   12   28 1
    29   13   14 ar
    30   13   29 1
    31   14   15 ar
    32   14   30 1
    33   15   31 1
    34   32   33 1
    35   32   34 1
