@<TRIPOS>MOLECULE
ZINC00001331
   43    45     0     0     0
SMALL
USER_CHARGES

@<TRIPOS>ATOM
      1 C1          0.2247    1.2684   -0.1297 C.3       1 <0>        -0.0531
      2 N1          0.0453   -0.1863   -0.0305 N.4       1 <0>        -0.3866
      3 C2          0.6478   -0.8350   -1.2028 C.3       1 <0>        -0.0472
      4 C3          0.6975   -0.6780    1.1905 C.3       1 <0>        -0.0079
      5 C4         -0.0113   -0.0982    2.4162 C.3       1 <0>        -0.1231
      6 C5          0.6578   -0.6026    3.6687 C.2       1 <0>        -0.1617
      7 C6          1.0754    0.2637    4.5998 C.2       1 <0>         0.0016
      8 C7          0.7143    1.6961    4.4797 C.ar      1 <0>        -0.0497
      9 C8         -0.6072    1.9741    4.0971 C.ar      1 <0>        -0.1167
     10 C9         -1.0394    3.2721    3.9534 C.ar      1 <0>        -0.1208
     11 C10        -0.1581    4.3125    4.1896 C.ar      1 <0>        -0.1036
     12 C11         1.1385    4.0447    4.5665 C.ar      1 <0>        -0.1168
     13 C12         1.5943    2.7345    4.7193 C.ar      1 <0>        -0.0967
     14 C13         3.0335    2.6057    5.1447 C.3       1 <0>         0.1121
     15 O1          3.5623    1.3077    5.0514 O.3       1 <0>        -0.3236
     16 C14         3.1534    0.3360    5.8898 C.ar      1 <0>         0.1123
     17 C15         1.8870   -0.2235    5.7395 C.ar      1 <0>        -0.0969
     18 C16         1.4187   -1.1949    6.6134 C.ar      1 <0>        -0.0853
     19 C17         2.2374   -1.6266    7.6418 C.ar      1 <0>        -0.1213
     20 C18         3.5057   -1.0934    7.7889 C.ar      1 <0>        -0.0935
     21 C19         3.9757   -0.1118    6.9148 C.ar      1 <0>        -0.1290
     22 H1          1.2889    1.5015   -0.1671 H         1 <0>         0.1226
     23 H2         -0.2592    1.6332   -1.0357 H         1 <0>         0.1252
     24 H3         -0.2223    1.7497    0.7401 H         1 <0>         0.1229
     25 H4          1.7119   -0.6019   -1.2402 H         1 <0>         0.1220
     26 H5          0.5146   -1.9143   -1.1292 H         1 <0>         0.1237
     27 H6          0.1638   -0.4702   -2.1087 H         1 <0>         0.1247
     28 H7          0.6415   -1.7662    1.2193 H         1 <0>         0.1323
     29 H8          1.7424   -0.3677    1.1944 H         1 <0>         0.1312
     30 H9          0.0447    0.9900    2.3874 H         1 <0>         0.1024
     31 H10        -1.0562   -0.4085    2.4122 H         1 <0>         0.0951
     32 H11         0.8004   -1.6631    3.8152 H         1 <0>         0.1321
     33 H12        -1.2923    1.1598    3.9131 H         1 <0>         0.1262
     34 H13        -2.0578    3.4774    3.6583 H         1 <0>         0.1307
     35 H14        -0.4876    5.3349    4.0779 H         1 <0>         0.1314
     36 H15         1.8171    4.8652    4.7473 H         1 <0>         0.1301
     37 H16         3.6365    3.2686    4.5242 H         1 <0>         0.1208
     38 H17         3.1177    2.9381    6.1794 H         1 <0>         0.0709
     39 H18         0.4282   -1.6080    6.4924 H         1 <0>         0.1312
     40 H19         1.8860   -2.3804    8.3307 H         1 <0>         0.1337
     41 H20         4.1422   -1.4426    8.5885 H         1 <0>         0.1343
     42 H21         4.9661    0.3014    7.0359 H         1 <0>         0.1376
     43 H22        -0.9398   -0.4020    0.0041 H         1 <0>         0.4262
@<TRIPOS>BOND
     1    1    2 1
     2    1   22 1
     3    1   23 1
     4    1   24 1
     5    2    3 1
     6    2    4 1
     7    2   43 1
     8    3   25 1
     9    3   26 1
    10    3   27 1
    11    4    5 1
    12    4   28 1
    13    4   29 1
    14    5    6 1
    15    5   30 1
    16    5   31 1
    17    6    7 2
    18    6   32 1
    19    7   17 1
    20    7    8 1
    21    8   13 ar
    22    8    9 ar
    23    9   10 ar
    24    9   33 1
    25   10   11 ar
    26   10   34 1
    27   11   12 ar
    28   11   35 1
    29   12   13 ar
    30   12   36 1
    31   13   14 1
    32   14   15 1
    33   14   37 1
    34   14   38 1
    35   15   16 1
    36   16   21 ar
    37   16   17 ar
    38   17   18 ar
    39   18   19 ar
    40   18   39 1
    41   19   20 ar
    42   19   40 1
    43   20   21 ar
    44   20   41 1
    45   21   42 1
