@<TRIPOS>MOLECULE
ZINC19144216
   45    46     0     0     0
SMALL
USER_CHARGES
N'-[(4-methoxyphenyl)methyl]-N,N-dimethyl-N'-(2-pyridyl)ethane-1,2-diamine
@<TRIPOS>ATOM
      1 C1          4.0585    5.9783   -1.2406 C.3       1 <0>        -0.0448
      2 C2          3.1704    7.3055   -3.0606 C.3       1 <0>        -0.0410
      3 C3          1.6646    6.1371   -1.5673 C.3       1 <0>        -0.0271
      4 C4          1.3566    5.8834   -0.0903 C.3       1 <0>         0.1069
      5 N1          0.0730    5.1872    0.0283 N.pl3     1 <0>        -0.6000
      6 C5         -1.1680    5.9554    0.1543 C.3       1 <0>         0.1700
      7 C6         -1.4569    6.2076    1.6117 C.ar      1 <0>        -0.1624
      8 C7         -2.2200    5.3059    2.3302 C.ar      1 <0>        -0.0581
      9 C8         -2.4814    5.5319    3.6677 C.ar      1 <0>        -0.2066
     10 C9         -1.9871    6.6707    4.2871 C.ar      1 <0>         0.1426
     11 C10        -1.2264    7.5768    3.5625 C.ar      1 <0>        -0.1535
     12 C11        -0.9631    7.3433    2.2267 C.ar      1 <0>        -0.0661
     13 O1         -2.2472    6.8979    5.6015 O.3       1 <0>        -0.3146
     14 C12        -3.0369    5.9224    6.2846 C.3       1 <0>         0.0245
     15 C13         0.0327    3.7978    0.0212 C.ar      1 <0>         0.3905
     16 C14        -1.1952    3.1436    0.0294 C.ar      1 <0>        -0.2274
     17 C15        -1.2206    1.7609    0.0173 C.ar      1 <0>        -0.0309
     18 C16        -0.0126    1.0758    0.0080 C.ar      1 <0>        -0.2154
     19 C17         1.1691    1.7890    0.0005 C.ar      1 <0>         0.1441
     20 N2          1.1632    3.1087    0.0072 N.ar      1 <0>        -0.5473
     21 H1          4.0911    5.0782   -1.8545 H         1 <0>         0.1240
     22 H2          4.9994    6.5196   -1.3392 H         1 <0>         0.1224
     23 H3          3.9062    5.7013   -0.1974 H         1 <0>         0.1232
     24 H4          2.3726    7.9934   -3.3406 H         1 <0>         0.1205
     25 H5          4.1302    7.8187   -3.1206 H         1 <0>         0.1235
     26 H6          3.1708    6.4535   -3.7405 H         1 <0>         0.1220
     27 H7          1.7172    5.1855   -2.0962 H         1 <0>         0.1317
     28 H8          0.8764    6.7515   -2.0025 H         1 <0>         0.1263
     29 H9          1.3039    6.8351    0.4385 H         1 <0>         0.0905
     30 H10         2.1447    5.2690    0.3449 H         1 <0>         0.1073
     31 H11        -1.0602    6.9077   -0.3648 H         1 <0>         0.0891
     32 H12        -1.9904    5.3922   -0.2869 H         1 <0>         0.0938
     33 H13        -2.6083    4.4218    1.8465 H         1 <0>         0.1247
     34 H14        -3.0739    4.8250    4.2296 H         1 <0>         0.1320
     35 H15        -0.8408    8.4642    4.0424 H         1 <0>         0.1337
     36 H16        -0.3707    8.0482    1.6623 H         1 <0>         0.1236
     37 H17        -2.5327    4.9567    6.2485 H         1 <0>         0.0578
     38 H18        -3.1691    6.2246    7.3235 H         1 <0>         0.1063
     39 H19        -4.0114    5.8417    5.8029 H         1 <0>         0.0593
     40 H20        -2.1160    3.7079    0.0405 H         1 <0>         0.1348
     41 H21        -2.1588    1.2259    0.0192 H         1 <0>         0.1382
     42 H22         0.0021   -0.0041    0.0020 H         1 <0>         0.1372
     43 H23         2.1107    1.2603   -0.0113 H         1 <0>         0.1590
     44 N3          2.9508    6.8582   -1.6691 N.4       1 <0>        -0.3940
     45 H24         2.9215    7.6806   -1.0551 H         1 <0>         0.4297
@<TRIPOS>BOND
     1    1   21 1
     2    1   22 1
     3    1   23 1
     4    1   44 1
     5    2   24 1
     6    2   25 1
     7    2   26 1
     8    2   44 1
     9    3    4 1
    10    3   27 1
    11    3   28 1
    12    3   44 1
    13    4    5 1
    14    4   29 1
    15    4   30 1
    16    5    6 1
    17    5   15 1
    18    6    7 1
    19    6   31 1
    20    6   32 1
    21    7   12 ar
    22    7    8 ar
    23    8    9 ar
    24    8   33 1
    25    9   10 ar
    26    9   34 1
    27   10   11 ar
    28   10   13 1
    29   11   12 ar
    30   11   35 1
    31   12   36 1
    32   13   14 1
    33   14   37 1
    34   14   38 1
    35   14   39 1
    36   15   20 ar
    37   15   16 ar
    38   16   17 ar
    39   16   40 1
    40   17   18 ar
    41   17   41 1
    42   18   19 ar
    43   18   42 1
    44   19   20 ar
    45   19   43 1
    46   44   45 1
