@<TRIPOS>MOLECULE
ZINC00001148
   43    45     0     0     0
SMALL
USER_CHARGES

@<TRIPOS>ATOM
      1 C1         -0.0178    1.4648    0.0101 C.3       1 <0>        -0.0558
      2 N1          0.0021   -0.0041    0.0020 N.4       1 <0>        -0.3873
      3 C2          0.6897   -0.4778   -1.2066 C.3       1 <0>        -0.0474
      4 C3          0.7126   -0.4907    1.1921 C.3       1 <0>        -0.0076
      5 C4         -0.0711   -0.1034    2.4478 C.3       1 <0>        -0.1233
      6 C5          0.6578   -0.6026    3.6687 C.2       1 <0>        -0.1603
      7 C6          0.9869    0.2498    4.6469 C.2       1 <0>         0.0007
      8 C7          1.7090   -0.2510    5.8404 C.ar      1 <0>        -0.0503
      9 C8          2.7507   -1.1606    5.6006 C.ar      1 <0>        -0.1071
     10 C9          3.4786   -1.6867    6.6423 C.ar      1 <0>        -0.1150
     11 C10         3.1773   -1.3124    7.9400 C.ar      1 <0>        -0.1025
     12 C11         2.1575   -0.4193    8.1800 C.ar      1 <0>        -0.1174
     13 C12         1.4095    0.1263    7.1358 C.ar      1 <0>        -0.1008
     14 C13         0.3358    1.0943    7.5587 C.3       1 <0>         0.1159
     15 O1         -0.5748    1.4438    6.5480 O.3       1 <0>        -0.3234
     16 C14        -0.1903    2.2131    5.5112 C.ar      1 <0>         0.1199
     17 C15         0.6298    1.6819    4.5188 C.ar      1 <0>        -0.0929
     18 C16         1.0795    2.4600    3.4611 C.ar      1 <0>        -0.1007
     19 C17         0.6870    3.7845    3.3850 C.ar      1 <0>        -0.1290
     20 C18        -0.1447    4.3182    4.3534 C.ar      1 <0>        -0.0936
     21 C19        -0.5926    3.5387    5.4214 C.ar      1 <0>        -0.1252
     22 H1          1.0047    1.8421    0.0024 H         1 <0>         0.1228
     23 H2         -0.5450    1.8259   -0.8730 H         1 <0>         0.1262
     24 H3         -0.5280    1.8163    0.9069 H         1 <0>         0.1244
     25 H4          1.7123   -0.1005   -1.2143 H         1 <0>         0.1218
     26 H5          0.7044   -1.5677   -1.2126 H         1 <0>         0.1237
     27 H6          0.1625   -0.1167   -2.0897 H         1 <0>         0.1249
     28 H7          0.8051   -1.5756    1.1418 H         1 <0>         0.1332
     29 H8          1.7055   -0.0428    1.2310 H         1 <0>         0.1297
     30 H9         -0.1636    0.9815    2.4982 H         1 <0>         0.1009
     31 H10        -1.0640   -0.5514    2.4090 H         1 <0>         0.0963
     32 H11         0.9146   -1.6482    3.7545 H         1 <0>         0.1317
     33 H12         2.9831   -1.4509    4.5866 H         1 <0>         0.1235
     34 H13         4.2783   -2.3864    6.4492 H         1 <0>         0.1311
     35 H14         3.7421   -1.7213    8.7647 H         1 <0>         0.1316
     36 H15         1.9314   -0.1356    9.1973 H         1 <0>         0.1298
     37 H16        -0.2203    0.6520    8.3853 H         1 <0>         0.1233
     38 H17         0.8154    2.0042    7.9197 H         1 <0>         0.0703
     39 H18         1.7275    2.0372    2.7077 H         1 <0>         0.1246
     40 H19         1.0305    4.4028    2.5688 H         1 <0>         0.1317
     41 H20        -0.4542    5.3504    4.2816 H         1 <0>         0.1346
     42 H21        -1.2404    3.9617    6.1749 H         1 <0>         0.1395
     43 H22        -0.9445   -0.3533    0.0092 H         1 <0>         0.4275
@<TRIPOS>BOND
     1    1    2 1
     2    1   22 1
     3    1   23 1
     4    1   24 1
     5    2    3 1
     6    2    4 1
     7    2   43 1
     8    3   25 1
     9    3   26 1
    10    3   27 1
    11    4    5 1
    12    4   28 1
    13    4   29 1
    14    5    6 1
    15    5   30 1
    16    5   31 1
    17    6    7 2
    18    6   32 1
    19    7   17 1
    20    7    8 1
    21    8   13 ar
    22    8    9 ar
    23    9   10 ar
    24    9   33 1
    25   10   11 ar
    26   10   34 1
    27   11   12 ar
    28   11   35 1
    29   12   13 ar
    30   12   36 1
    31   13   14 1
    32   14   15 1
    33   14   37 1
    34   14   38 1
    35   15   16 1
    36   16   21 ar
    37   16   17 ar
    38   17   18 ar
    39   18   19 ar
    40   18   39 1
    41   19   20 ar
    42   19   40 1
    43   20   21 ar
    44   20   41 1
    45   21   42 1
