@<TRIPOS>MOLECULE
ZINC00440530
   40    43     0     0     0
SMALL
USER_CHARGES
2-(1-piperidyl)ethylBLAH
@<TRIPOS>ATOM
      1 C1         -0.0126    1.0758    0.0080 C.ar      1 <0>        -0.0781
      2 C2          1.1790    1.7818    0.0004 C.ar      1 <0>        -0.1051
      3 C3          1.1710    3.1616    0.0074 C.ar      1 <0>        -0.0687
      4 C4         -0.0363    3.8471    0.0221 C.ar      1 <0>         0.1029
      5 C5         -1.2376    3.1349    0.0298 C.ar      1 <0>         0.1139
      6 C6         -1.2184    1.7467    0.0173 C.ar      1 <0>        -0.1166
      7 N1         -2.2666    4.0690    0.0442 N.pl3     1 <0>        -0.4843
      8 C7         -1.7021    5.3264    0.0452 C.2       1 <0>         0.4528
      9 N2         -0.3575    5.2006    0.0319 N.pl3     1 <0>        -0.3363
     10 N3          0.1655    6.5020    0.0339 N.2       1 <0>        -0.2929
     11 C8         -0.8532    7.3220    0.0478 C.2       1 <0>         0.2457
     12 N4         -1.9827    6.6164    0.0547 N.2       1 <0>        -0.5440
     13 C9         -3.7006    3.7695    0.0556 C.3       1 <0>         0.1119
     14 C10        -4.2129    3.6728   -1.3829 C.3       1 <0>        -0.0288
     15 C11        -5.9053    2.0380   -0.8139 C.3       1 <0>        -0.0094
     16 C12        -7.4140    1.8178   -0.6826 C.3       1 <0>        -0.1467
     17 C13        -8.0658    1.9479   -2.0620 C.3       1 <0>        -0.1397
     18 C14        -7.7451    3.3286   -2.6412 C.3       1 <0>        -0.1474
     19 C15        -6.2268    3.5051   -2.7157 C.3       1 <0>        -0.0005
     20 H1          0.0021   -0.0041    0.0020 H         1 <0>         0.1474
     21 H2          2.1189    1.2499   -0.0114 H         1 <0>         0.1479
     22 H3          2.1028    3.7078    0.0011 H         1 <0>         0.1446
     23 H4         -2.1456    1.1928    0.0186 H         1 <0>         0.1361
     24 H5         -0.7888    8.4001    0.0526 H         1 <0>         0.2390
     25 H6         -3.8697    2.8214    0.5660 H         1 <0>         0.1167
     26 H7         -4.2335    4.5637    0.5784 H         1 <0>         0.1190
     27 H8         -4.0438    4.6210   -1.8933 H         1 <0>         0.1378
     28 H9         -3.6800    2.8787   -1.9057 H         1 <0>         0.1385
     29 H10        -5.4840    1.2815   -1.4760 H         1 <0>         0.1334
     30 H11        -5.4400    1.9602    0.1687 H         1 <0>         0.1273
     31 H12        -7.8337    2.5656   -0.0098 H         1 <0>         0.0891
     32 H13        -7.6035    0.8215   -0.2831 H         1 <0>         0.1138
     33 H14        -9.1457    1.8347   -1.9667 H         1 <0>         0.0954
     34 H15        -7.6756    1.1754   -2.7246 H         1 <0>         0.0822
     35 H16        -8.1701    4.1002   -1.9991 H         1 <0>         0.0890
     36 H17        -8.1706    3.4115   -3.6412 H         1 <0>         0.1138
     37 H18        -5.9951    4.4927   -3.1143 H         1 <0>         0.1297
     38 H19        -5.8042    2.7415   -3.3688 H         1 <0>         0.1313
     39 N5         -5.6634    3.3931   -1.3536 N.4       1 <0>        -0.3901
     40 H20        -6.1233    4.0807   -0.7454 H         1 <0>         0.4293
@<TRIPOS>BOND
     1    1    6 ar
     2    1    2 ar
     3    1   20 1
     4    2    3 ar
     5    2   21 1
     6    3    4 ar
     7    3   22 1
     8    4    9 1
     9    4    5 ar
    10    5    6 ar
    11    5    7 1
    12    6   23 1
    13    7    8 1
    14    7   13 1
    15    8   12 2
    16    8    9 1
    17    9   10 1
    18   10   11 2
    19   11   12 1
    20   11   24 1
    21   13   14 1
    22   13   25 1
    23   13   26 1
    24   14   27 1
    25   14   28 1
    26   14   39 1
    27   15   16 1
    28   15   29 1
    29   15   30 1
    30   15   39 1
    31   16   17 1
    32   16   31 1
    33   16   32 1
    34   17   18 1
    35   17   33 1
    36   17   34 1
    37   18   19 1
    38   18   35 1
    39   18   36 1
    40   19   37 1
    41   19   38 1
    42   19   39 1
    43   39   40 1
