@<TRIPOS>MOLECULE
ZINC32779328
   44    47     0     0     0
SMALL
USER_CHARGES
4-(4-cyclopentylpiperazin-1-yl)quinazoline
@<TRIPOS>ATOM
      1 C1         -0.2603   -0.7344    3.0105 C.ar      1 <0>        -0.1106
      2 C2          0.9573   -1.4060    2.9443 C.ar      1 <0>        -0.0715
      3 C3          1.8412   -1.1607    1.9359 C.ar      1 <0>        -0.0990
      4 C4          1.5211   -0.2181    0.9493 C.ar      1 <0>         0.1616
      5 C5          0.2819    0.4641    1.0186 C.ar      1 <0>        -0.1305
      6 C6         -0.6031    0.1889    2.0670 C.ar      1 <0>        -0.0719
      7 C7         -0.0171    1.4119    0.0098 C.ar      1 <0>         0.3677
      8 N1          0.8791    1.6116   -0.9475 N.ar      1 <0>        -0.5524
      9 C8          2.0248    0.9497   -0.9707 C.ar      1 <0>         0.3098
     10 N2          2.3547    0.0612   -0.0636 N.ar      1 <0>        -0.4892
     11 N3         -1.2093    2.1039    0.0192 N.pl3     1 <0>        -0.4841
     12 C9         -2.0023    1.8033   -1.1809 C.3       1 <0>         0.0309
     13 C10        -3.3482    2.5268   -1.0943 C.3       1 <0>        -0.0087
     14 N4         -3.1169    3.9726   -0.9679 N.4       1 <0>        -0.4035
     15 C11        -2.3239    4.2733    0.2322 C.3       1 <0>         0.0023
     16 C12        -0.9780    3.5497    0.1456 C.3       1 <0>         0.0296
     17 C13        -4.3874    4.7100   -0.9579 C.3       1 <0>         0.0285
     18 C14        -5.2459    4.2672    0.2449 C.3       1 <0>        -0.1452
     19 C15        -6.6960    4.2769   -0.2994 C.3       1 <0>        -0.1246
     20 C16        -6.5222    3.7469   -1.7444 C.3       1 <0>        -0.1267
     21 C17        -5.1989    4.3792   -2.2227 C.3       1 <0>        -0.1403
     22 H1         -0.9428   -0.9474    3.8200 H         1 <0>         0.1377
     23 H2          1.2056   -2.1325    3.7038 H         1 <0>         0.1420
     24 H3          2.7822   -1.6892    1.8976 H         1 <0>         0.1474
     25 H4         -1.5503    0.7040    2.1288 H         1 <0>         0.1409
     26 H5          2.7198    1.1501   -1.7727 H         1 <0>         0.2018
     27 H6         -1.4586    2.1440   -2.0744 H         1 <0>         0.0809
     28 H7         -2.1717    0.7184   -1.2462 H         1 <0>         0.1236
     29 H8         -3.9317    2.3260   -2.0049 H         1 <0>         0.1430
     30 H9         -3.9031    2.1651   -0.2161 H         1 <0>         0.1395
     31 H10        -2.1545    5.3582    0.2974 H         1 <0>         0.1415
     32 H11        -2.8676    3.9328    1.1258 H         1 <0>         0.1373
     33 H12        -0.3940    3.7494    1.0561 H         1 <0>         0.1244
     34 H13        -0.4225    3.9104   -0.7327 H         1 <0>         0.0814
     35 H14        -4.1065    5.7723   -0.9073 H         1 <0>         0.1363
     36 H15        -4.9333    3.2635    0.5688 H         1 <0>         0.0874
     37 H16        -5.1111    4.9783    1.0732 H         1 <0>         0.0944
     38 H17        -7.3248    3.6213    0.3209 H         1 <0>         0.0872
     39 H18        -7.0927    5.3024   -0.2678 H         1 <0>         0.0831
     40 H19        -6.4726    2.6481   -1.7284 H         1 <0>         0.0782
     41 H20        -7.3777    4.0664   -2.3576 H         1 <0>         0.0887
     42 H21        -5.3878    5.3030   -2.7891 H         1 <0>         0.1041
     43 H22        -4.6314    3.6749   -2.8487 H         1 <0>         0.0859
     44 H23        -2.5426    4.3029   -1.8460 H         1 <0>         0.4408
@<TRIPOS>BOND
     1    1    6 ar
     2    1    2 ar
     3    1   22 1
     4    2    3 ar
     5    2   23 1
     6    3    4 ar
     7    3   24 1
     8    4   10 ar
     9    4    5 ar
    10    5    6 ar
    11    5    7 ar
    12    6   25 1
    13    7    8 ar
    14    7   11 1
    15    8    9 ar
    16    9   10 ar
    17    9   26 1
    18   11   16 1
    19   11   12 1
    20   12   13 1
    21   12   27 1
    22   12   28 1
    23   13   14 1
    24   13   29 1
    25   13   30 1
    26   14   15 1
    27   14   17 1
    28   14   44 1
    29   15   16 1
    30   15   31 1
    31   15   32 1
    32   16   33 1
    33   16   34 1
    34   17   21 1
    35   17   18 1
    36   17   35 1
    37   18   19 1
    38   18   36 1
    39   18   37 1
    40   19   20 1
    41   19   38 1
    42   19   39 1
    43   20   21 1
    44   20   40 1
    45   20   41 1
    46   21   42 1
    47   21   43 1
